data_UKAQIH_clean_PM
_symmetry_space_group_name_H-M	'P1'
_cell_length_a	10.796100
_cell_length_b	11.833300
_cell_length_c	14.577900
_cell_angle_alpha	73.788000
_cell_angle_beta	72.083000
_cell_angle_gamma	67.049000
_symmetry_Int_Tables_number 1

loop_
_symmetry_equiv_pos_as_xyz
'x,y,z'

loop_
_atom_site_label
_atom_site_type_symbol
_atom_site_fract_x
_atom_site_fract_y
_atom_site_fract_z
Gd11	Gd1	0.010740	0.447710	0.371850
Gd21	Gd2	0.989260	0.552290	0.628150
P11	P1	0.854370	0.280330	0.274380
P21	P2	0.145630	0.719670	0.725620
H11	H1	0.488200	0.368900	0.555200
H21	H2	0.043500	0.102300	0.382200
H31	H3	0.716500	0.324800	0.463700
H41	H4	0.033100	0.181400	0.106400
H51	H5	0.362200	0.376400	0.318600
H61	H6	0.591100	0.325200	0.228400
H71	H7	0.811600	0.079900	0.219400
H81	H8	0.748900	0.573400	0.981900
H91	H9	0.071900	0.257600	0.937500
H101	H10	0.107400	0.885400	0.435800
H111	H11	0.887600	0.863000	0.265300
H121	H12	0.718800	0.501900	0.151600
H131	H13	0.511800	0.631100	0.444800
H141	H14	0.956500	0.897700	0.617800
H151	H15	0.283500	0.675200	0.536300
H161	H16	0.966900	0.818600	0.893600
H171	H17	0.637800	0.623600	0.681400
H181	H18	0.408900	0.674800	0.771600
H191	H19	0.188400	0.920100	0.780600
H201	H20	0.251100	0.426600	0.018100
H211	H21	0.928100	0.742400	0.062500
H221	H22	0.892600	0.114600	0.564200
H231	H23	0.112400	0.137000	0.734700
H241	H24	0.281200	0.498100	0.848400
C11	C1	0.868300	0.333000	0.144800
C21	C2	0.508900	0.361600	0.488500
C31	C3	0.918900	0.111900	0.297700
C41	C4	0.674900	0.321500	0.337000
C51	C5	0.008900	0.054200	0.360500
C61	C6	0.644800	0.334400	0.434400
C71	C7	0.403600	0.378000	0.445400
C81	C8	0.975300	0.261100	0.081200
C91	C9	0.434200	0.365100	0.348200
C101	C10	0.570200	0.335600	0.294400
C111	C11	0.872600	0.040400	0.262700
C121	C12	0.911900	0.420900	0.943200
C131	C13	0.935900	0.465600	0.834200
C141	C14	0.807200	0.493900	0.007000
C151	C15	0.997500	0.306100	0.980700
C161	C16	0.000800	0.854200	0.357900
C171	C17	0.047900	0.925000	0.391400
C181	C18	0.915900	0.911900	0.291200
C191	C19	0.034700	0.716100	0.398300
C201	C20	0.257000	0.414700	0.504400
C211	C21	0.787900	0.450300	0.108000
C221	C22	0.131700	0.667000	0.855200
C231	C23	0.491100	0.638400	0.511500
C241	C24	0.081100	0.888100	0.702300
C251	C25	0.325100	0.678500	0.663000
C261	C26	0.991100	0.945800	0.639500
C271	C27	0.355200	0.665600	0.565600
C281	C28	0.596400	0.622000	0.554600
C291	C29	0.024700	0.738900	0.918800
C301	C30	0.565800	0.634900	0.651800
C311	C31	0.429800	0.664400	0.705600
C321	C32	0.127400	0.959600	0.737300
C331	C33	0.088100	0.579100	0.056800
C341	C34	0.064100	0.534400	0.165800
C351	C35	0.192800	0.506100	0.993000
C361	C36	0.002500	0.693900	0.019300
C371	C37	0.999200	0.145800	0.642100
C381	C38	0.952100	0.075000	0.608600
C391	C39	0.084100	0.088100	0.708800
C401	C40	0.965300	0.283900	0.601700
C411	C41	0.743000	0.585300	0.495600
C421	C42	0.212100	0.549700	0.892000
O11	O1	0.056700	0.425700	0.783640
O21	O2	0.233200	0.440800	0.587550
O31	O3	0.065600	0.680100	0.481200
O41	O4	0.836100	0.541200	0.795680
O51	O5	0.027200	0.649500	0.348030
O61	O6	0.161200	0.424700	0.466480
O71	O7	0.930800	0.328700	0.315070
O81	O8	0.943300	0.574300	0.216360
O91	O9	0.766800	0.559200	0.412450
O101	O10	0.934400	0.319900	0.518800
O111	O11	0.163900	0.458800	0.204320
O121	O12	0.972800	0.350500	0.651970
O131	O13	0.838800	0.575300	0.533520
O141	O14	0.069200	0.671300	0.684930
