data_UKAQAZ_clean_PM
_symmetry_space_group_name_H-M	'P1'
_cell_length_a	10.745900
_cell_length_b	11.865500
_cell_length_c	14.675200
_cell_angle_alpha	73.267000
_cell_angle_beta	71.824000
_cell_angle_gamma	66.799000
_symmetry_Int_Tables_number 1

loop_
_symmetry_equiv_pos_as_xyz
'x,y,z'

loop_
_atom_site_label
_atom_site_type_symbol
_atom_site_fract_x
_atom_site_fract_y
_atom_site_fract_z
Sm11	Sm1	0.012980	0.449690	0.372090
Sm21	Sm2	0.987020	0.550310	0.627910
P11	P1	0.856630	0.281960	0.274290
P21	P2	0.143370	0.718040	0.725710
H11	H1	0.493800	0.365700	0.556900
H21	H2	0.046100	0.102700	0.383100
H31	H3	0.721200	0.322200	0.464300
H41	H4	0.027800	0.179900	0.106800
H51	H5	0.358400	0.383100	0.323000
H61	H6	0.589200	0.333200	0.230000
H71	H7	0.812500	0.082700	0.221500
H81	H8	0.749900	0.577300	0.983300
H91	H9	0.064600	0.254600	0.938600
H101	H10	0.113800	0.886600	0.434600
H111	H11	0.889600	0.865200	0.267500
H121	H12	0.723200	0.505500	0.151600
H131	H13	0.506200	0.634300	0.443100
H141	H14	0.953900	0.897300	0.616900
H151	H15	0.278800	0.677800	0.535700
H161	H16	0.972200	0.820100	0.893200
H171	H17	0.641600	0.616900	0.677000
H181	H18	0.410800	0.666800	0.770000
H191	H19	0.187500	0.917300	0.778500
H201	H20	0.250100	0.422700	0.016700
H211	H21	0.935400	0.745400	0.061400
H221	H22	0.886200	0.113400	0.565400
H231	H23	0.110400	0.134800	0.732500
H241	H24	0.276800	0.494500	0.848400
C11	C1	0.869500	0.334100	0.145500
C21	C2	0.513000	0.360100	0.490300
C31	C3	0.921800	0.113700	0.298600
C41	C4	0.676200	0.323900	0.338000
C51	C5	0.012100	0.054900	0.361000
C61	C6	0.647900	0.333700	0.435700
C71	C7	0.404800	0.378600	0.448700
C81	C8	0.971500	0.261000	0.081800
C91	C9	0.432200	0.369700	0.351700
C101	C10	0.569500	0.340900	0.296100
C111	C11	0.874500	0.042600	0.264200
C121	C12	0.908300	0.420600	0.945000
C131	C13	0.930200	0.464900	0.835900
C141	C14	0.806900	0.496600	0.008300
C151	C15	0.992400	0.304600	0.981800
C161	C16	0.005100	0.855400	0.358400
C171	C17	0.052800	0.926400	0.391100
C181	C18	0.918500	0.913800	0.292700
C191	C19	0.040800	0.717300	0.397800
C201	C20	0.258300	0.413500	0.508800
C211	C21	0.790200	0.453000	0.108100
C221	C22	0.130500	0.665900	0.854500
C231	C23	0.487000	0.639900	0.509700
C241	C24	0.078200	0.886300	0.701400
C251	C25	0.323800	0.676100	0.662000
C261	C26	0.987900	0.945100	0.639000
C271	C27	0.352100	0.666300	0.564300
C281	C28	0.595200	0.621400	0.551300
C291	C29	0.028500	0.739000	0.918200
C301	C30	0.567800	0.630300	0.648300
C311	C31	0.430500	0.659100	0.703900
C321	C32	0.125500	0.957400	0.735800
C331	C33	0.091700	0.579400	0.055000
C341	C34	0.069800	0.535100	0.164100
C351	C35	0.193100	0.503400	0.991700
C361	C36	0.007600	0.695400	0.018200
C371	C37	0.994900	0.144600	0.641600
C381	C38	0.947200	0.073600	0.608900
C391	C39	0.081500	0.086200	0.707300
C401	C40	0.959200	0.282700	0.602200
C411	C41	0.741700	0.586500	0.491200
C421	C42	0.209800	0.547000	0.891900
O11	O1	0.050600	0.422900	0.784200
O21	O2	0.236200	0.436300	0.592110
O31	O3	0.069400	0.680200	0.481270
O41	O4	0.829400	0.541500	0.797970
O51	O5	0.036700	0.650400	0.346960
O61	O6	0.159900	0.424300	0.473260
O71	O7	0.935100	0.330100	0.312760
O81	O8	0.949400	0.577100	0.215800
O91	O9	0.763800	0.563700	0.407890
O101	O10	0.930600	0.319800	0.518730
O111	O11	0.170600	0.458500	0.202030
O121	O12	0.963300	0.349600	0.653040
O131	O13	0.840100	0.575700	0.526740
O141	O14	0.064900	0.669900	0.687240
