data_UKIQOV_clean_PM
_symmetry_space_group_name_H-M	'P1'
_cell_length_a	18.431000
_cell_length_b	18.431000
_cell_length_c	40.520000
_cell_angle_alpha	90.000000
_cell_angle_beta	90.000000
_cell_angle_gamma	120.000000
_symmetry_Int_Tables_number 1

loop_
_symmetry_equiv_pos_as_xyz
'x,y,z'

loop_
_atom_site_label
_atom_site_type_symbol
_atom_site_fract_x
_atom_site_fract_y
_atom_site_fract_z
Co11	Co1	0.116260	0.058130	0.750000
Co21	Co2	0.941870	0.883740	0.750000
Co31	Co3	0.941870	0.058130	0.750000
Co41	Co4	0.883740	0.941870	0.250000
Co51	Co5	0.058130	0.116260	0.250000
Co61	Co6	0.058130	0.941870	0.250000
Cu11	Cu1	0.476070	0.523930	0.473990
Cu21	Cu2	0.047860	0.523930	0.473990
Cu31	Cu3	0.476070	0.952140	0.473990
Cu41	Cu4	0.523930	0.476070	0.973990
Cu51	Cu5	0.952140	0.476070	0.973990
Cu61	Cu6	0.523930	0.047860	0.973990
Cu71	Cu7	0.952140	0.476070	0.526010
Cu81	Cu8	0.523930	0.476070	0.526010
Cu91	Cu9	0.523930	0.047860	0.526010
Cu101	Cu10	0.047860	0.523930	0.026010
Cu111	Cu11	0.476070	0.523930	0.026010
Cu121	Cu12	0.476070	0.952140	0.026010
H11	H1	0.292600	0.367200	0.582600
H21	H2	0.043600	0.289200	0.619900
H31	H3	0.011400	0.223400	0.673200
H41	H4	0.074600	0.707400	0.582600
H51	H5	0.245600	0.956400	0.619900
H61	H6	0.212000	0.988600	0.673200
H71	H7	0.632800	0.925400	0.582600
H81	H8	0.710800	0.754400	0.619900
H91	H9	0.776600	0.788000	0.673200
H101	H10	0.707400	0.632800	0.082600
H111	H11	0.956400	0.710800	0.119900
H121	H12	0.988600	0.776600	0.173200
H131	H13	0.925400	0.292600	0.082600
H141	H14	0.754400	0.043600	0.119900
H151	H15	0.788000	0.011400	0.173200
H161	H16	0.367200	0.074600	0.082600
H171	H17	0.289200	0.245600	0.119900
H181	H18	0.223400	0.212000	0.173200
H191	H19	0.925400	0.632800	0.417400
H201	H20	0.754400	0.710800	0.380100
H211	H21	0.788000	0.776600	0.326800
H221	H22	0.367200	0.292600	0.417400
H231	H23	0.289200	0.043600	0.380100
H241	H24	0.223400	0.011400	0.326800
H251	H25	0.707400	0.074600	0.417400
H261	H26	0.956400	0.245600	0.380100
H271	H27	0.988600	0.212000	0.326800
H281	H28	0.074600	0.367200	0.917400
H291	H29	0.245600	0.289200	0.880100
H301	H30	0.212000	0.223400	0.826800
H311	H31	0.632800	0.707400	0.917400
H321	H32	0.710800	0.956400	0.880100
H331	H33	0.776600	0.988600	0.826800
H341	H34	0.292600	0.925400	0.917400
H351	H35	0.043600	0.754400	0.880100
H361	H36	0.011400	0.788000	0.826800
H371	H37	0.707400	0.632800	0.417400
H381	H38	0.956400	0.710800	0.380100
H391	H39	0.988600	0.776600	0.326800
H401	H40	0.925400	0.292600	0.417400
H411	H41	0.754400	0.043600	0.380100
H421	H42	0.788000	0.011400	0.326800
H431	H43	0.367200	0.074600	0.417400
H441	H44	0.289200	0.245600	0.380100
H451	H45	0.223400	0.212000	0.326800
H461	H46	0.292600	0.367200	0.917400
H471	H47	0.043600	0.289200	0.880100
H481	H48	0.011400	0.223400	0.826800
H491	H49	0.074600	0.707400	0.917400
H501	H50	0.245600	0.956400	0.880100
H511	H51	0.212000	0.988600	0.826800
H521	H52	0.632800	0.925400	0.917400
H531	H53	0.710800	0.754400	0.880100
H541	H54	0.776600	0.788000	0.826800
H551	H55	0.074600	0.367200	0.582600
H561	H56	0.245600	0.289200	0.619900
H571	H57	0.212000	0.223400	0.673200
H581	H58	0.632800	0.707400	0.582600
H591	H59	0.710800	0.956400	0.619900
H601	H60	0.776600	0.988600	0.673200
H611	H61	0.292600	0.925400	0.582600
H621	H62	0.043600	0.754400	0.619900
H631	H63	0.011400	0.788000	0.673200
H641	H64	0.925400	0.632800	0.082600
H651	H65	0.754400	0.710800	0.119900
H661	H66	0.788000	0.776600	0.173200
H671	H67	0.367200	0.292600	0.082600
H681	H68	0.289200	0.043600	0.119900
H691	H69	0.223400	0.011400	0.173200
H701	H70	0.707400	0.074600	0.082600
H711	H71	0.956400	0.245600	0.119900
H721	H72	0.988600	0.212000	0.173200
H731	H73	0.236500	0.473000	0.508600
H741	H74	0.236500	0.763500	0.508600
H751	H75	0.527000	0.763500	0.508600
H761	H76	0.763500	0.527000	0.008600
H771	H77	0.763500	0.236500	0.008600
H781	H78	0.473000	0.236500	0.008600
H791	H79	0.763500	0.527000	0.491400
H801	H80	0.473000	0.236500	0.491400
H811	H81	0.763500	0.236500	0.491400
H821	H82	0.236500	0.473000	0.991400
H831	H83	0.527000	0.763500	0.991400
H841	H84	0.236500	0.763500	0.991400
C11	C1	0.358100	0.449200	0.526600
C21	C2	0.277800	0.423500	0.542900
C31	C3	0.255400	0.380400	0.572450
C41	C4	0.083200	0.280500	0.630600
C51	C5	0.060500	0.233600	0.662800
C61	C6	0.091100	0.641900	0.526600
C71	C7	0.145700	0.722200	0.542900
C81	C8	0.125000	0.744600	0.572450
C91	C9	0.197300	0.916800	0.630600
C101	C10	0.173100	0.939500	0.662800
C111	C11	0.550800	0.908900	0.526600
C121	C12	0.576500	0.854300	0.542900
C131	C13	0.619600	0.875000	0.572450
C141	C14	0.719500	0.802700	0.630600
C151	C15	0.766400	0.826900	0.662800
C161	C16	0.641900	0.550800	0.026600
C171	C17	0.722200	0.576500	0.042900
C181	C18	0.744600	0.619600	0.072450
C191	C19	0.916800	0.719500	0.130600
C201	C20	0.939500	0.766400	0.162800
C211	C21	0.908900	0.358100	0.026600
C221	C22	0.854300	0.277800	0.042900
C231	C23	0.875000	0.255400	0.072450
C241	C24	0.802700	0.083200	0.130600
C251	C25	0.826900	0.060500	0.162800
C261	C26	0.449200	0.091100	0.026600
C271	C27	0.423500	0.145700	0.042900
C281	C28	0.380400	0.125000	0.072450
C291	C29	0.280500	0.197300	0.130600
C301	C30	0.233600	0.173100	0.162800
C311	C31	0.908900	0.550800	0.473400
C321	C32	0.854300	0.576500	0.457100
C331	C33	0.875000	0.619600	0.427550
C341	C34	0.802700	0.719500	0.369400
C351	C35	0.826900	0.766400	0.337200
C361	C36	0.449200	0.358100	0.473400
C371	C37	0.423500	0.277800	0.457100
C381	C38	0.380400	0.255400	0.427550
C391	C39	0.280500	0.083200	0.369400
C401	C40	0.233600	0.060500	0.337200
C411	C41	0.641900	0.091100	0.473400
C421	C42	0.722200	0.145700	0.457100
C431	C43	0.744600	0.125000	0.427550
C441	C44	0.916800	0.197300	0.369400
C451	C45	0.939500	0.173100	0.337200
C461	C46	0.091100	0.449200	0.973400
C471	C47	0.145700	0.423500	0.957100
C481	C48	0.125000	0.380400	0.927550
C491	C49	0.197300	0.280500	0.869400
C501	C50	0.173100	0.233600	0.837200
C511	C51	0.550800	0.641900	0.973400
C521	C52	0.576500	0.722200	0.957100
C531	C53	0.619600	0.744600	0.927550
C541	C54	0.719500	0.916800	0.869400
C551	C55	0.766400	0.939500	0.837200
C561	C56	0.358100	0.908900	0.973400
C571	C57	0.277800	0.854300	0.957100
C581	C58	0.255400	0.875000	0.927550
C591	C59	0.083200	0.802700	0.869400
C601	C60	0.060500	0.826900	0.837200
C611	C61	0.641900	0.550800	0.473400
C621	C62	0.722200	0.576500	0.457100
C631	C63	0.744600	0.619600	0.427550
C641	C64	0.916800	0.719500	0.369400
C651	C65	0.939500	0.766400	0.337200
C661	C66	0.908900	0.358100	0.473400
C671	C67	0.854300	0.277800	0.457100
C681	C68	0.875000	0.255400	0.427550
C691	C69	0.802700	0.083200	0.369400
C701	C70	0.826900	0.060500	0.337200
C711	C71	0.449200	0.091100	0.473400
C721	C72	0.423500	0.145700	0.457100
C731	C73	0.380400	0.125000	0.427550
C741	C74	0.280500	0.197300	0.369400
C751	C75	0.233600	0.173100	0.337200
C761	C76	0.358100	0.449200	0.973400
C771	C77	0.277800	0.423500	0.957100
C781	C78	0.255400	0.380400	0.927550
C791	C79	0.083200	0.280500	0.869400
C801	C80	0.060500	0.233600	0.837200
C811	C81	0.091100	0.641900	0.973400
C821	C82	0.145700	0.722200	0.957100
C831	C83	0.125000	0.744600	0.927550
C841	C84	0.197300	0.916800	0.869400
C851	C85	0.173100	0.939500	0.837200
C861	C86	0.550800	0.908900	0.973400
C871	C87	0.576500	0.854300	0.957100
C881	C88	0.619600	0.875000	0.927550
C891	C89	0.719500	0.802700	0.869400
C901	C90	0.766400	0.826900	0.837200
C911	C91	0.091100	0.449200	0.526600
C921	C92	0.145700	0.423500	0.542900
C931	C93	0.125000	0.380400	0.572450
C941	C94	0.197300	0.280500	0.630600
C951	C95	0.173100	0.233600	0.662800
C961	C96	0.550800	0.641900	0.526600
C971	C97	0.576500	0.722200	0.542900
C981	C98	0.619600	0.744600	0.572450
C991	C99	0.719500	0.916800	0.630600
C1001	C100	0.766400	0.939500	0.662800
C1011	C101	0.358100	0.908900	0.526600
C1021	C102	0.277800	0.854300	0.542900
C1031	C103	0.255400	0.875000	0.572450
C1041	C104	0.083200	0.802700	0.630600
C1051	C105	0.060500	0.826900	0.662800
C1061	C106	0.908900	0.550800	0.026600
C1071	C107	0.854300	0.576500	0.042900
C1081	C108	0.875000	0.619600	0.072450
C1091	C109	0.802700	0.719500	0.130600
C1101	C110	0.826900	0.766400	0.162800
C1111	C111	0.449200	0.358100	0.026600
C1121	C112	0.423500	0.277800	0.042900
C1131	C113	0.380400	0.255400	0.072450
C1141	C114	0.280500	0.083200	0.130600
C1151	C115	0.233600	0.060500	0.162800
C1161	C116	0.641900	0.091100	0.026600
C1171	C117	0.722200	0.145700	0.042900
C1181	C118	0.744600	0.125000	0.072450
C1191	C119	0.916800	0.197300	0.130600
C1201	C120	0.939500	0.173100	0.162800
C1211	C121	0.222100	0.444200	0.528600
C1221	C122	0.178000	0.356000	0.587600
C1231	C123	0.154000	0.308000	0.618000
C1241	C124	0.103900	0.207800	0.676000
C1251	C125	0.076800	0.153600	0.704300
C1261	C126	0.222100	0.777900	0.528600
C1271	C127	0.178000	0.822000	0.587600
C1281	C128	0.154000	0.846000	0.618000
C1291	C129	0.103900	0.896100	0.676000
C1301	C130	0.076800	0.923200	0.704300
C1311	C131	0.555800	0.777900	0.528600
C1321	C132	0.644000	0.822000	0.587600
C1331	C133	0.692000	0.846000	0.618000
C1341	C134	0.792200	0.896100	0.676000
C1351	C135	0.846400	0.923200	0.704300
C1361	C136	0.777900	0.555800	0.028600
C1371	C137	0.822000	0.644000	0.087600
C1381	C138	0.846000	0.692000	0.118000
C1391	C139	0.896100	0.792200	0.176000
C1401	C140	0.923200	0.846400	0.204300
C1411	C141	0.777900	0.222100	0.028600
C1421	C142	0.822000	0.178000	0.087600
C1431	C143	0.846000	0.154000	0.118000
C1441	C144	0.896100	0.103900	0.176000
C1451	C145	0.923200	0.076800	0.204300
C1461	C146	0.444200	0.222100	0.028600
C1471	C147	0.356000	0.178000	0.087600
C1481	C148	0.308000	0.154000	0.118000
C1491	C149	0.207800	0.103900	0.176000
C1501	C150	0.153600	0.076800	0.204300
C1511	C151	0.777900	0.555800	0.471400
C1521	C152	0.822000	0.644000	0.412400
C1531	C153	0.846000	0.692000	0.382000
C1541	C154	0.896100	0.792200	0.324000
C1551	C155	0.923200	0.846400	0.295700
C1561	C156	0.444200	0.222100	0.471400
C1571	C157	0.356000	0.178000	0.412400
C1581	C158	0.308000	0.154000	0.382000
C1591	C159	0.207800	0.103900	0.324000
C1601	C160	0.153600	0.076800	0.295700
C1611	C161	0.777900	0.222100	0.471400
C1621	C162	0.822000	0.178000	0.412400
C1631	C163	0.846000	0.154000	0.382000
C1641	C164	0.896100	0.103900	0.324000
C1651	C165	0.923200	0.076800	0.295700
C1661	C166	0.222100	0.444200	0.971400
C1671	C167	0.178000	0.356000	0.912400
C1681	C168	0.154000	0.308000	0.882000
C1691	C169	0.103900	0.207800	0.824000
C1701	C170	0.076800	0.153600	0.795700
C1711	C171	0.555800	0.777900	0.971400
C1721	C172	0.644000	0.822000	0.912400
C1731	C173	0.692000	0.846000	0.882000
C1741	C174	0.792200	0.896100	0.824000
C1751	C175	0.846400	0.923200	0.795700
C1761	C176	0.222100	0.777900	0.971400
C1771	C177	0.178000	0.822000	0.912400
C1781	C178	0.154000	0.846000	0.882000
C1791	C179	0.103900	0.896100	0.824000
C1801	C180	0.076800	0.923200	0.795700
O11	O1	0.371800	0.481500	0.497670
O21	O2	0.122200	0.131700	0.715250
O31	O3	0.411500	0.437900	0.543320
O41	O4	0.109700	0.628200	0.497670
O51	O5	0.009500	0.877800	0.715250
O61	O6	0.026400	0.588500	0.543320
O71	O7	0.518500	0.890300	0.497670
O81	O8	0.868300	0.990500	0.715250
O91	O9	0.562100	0.973600	0.543320
O101	O10	0.628200	0.518500	0.997670
O111	O11	0.877800	0.868300	0.215250
O121	O12	0.588500	0.562100	0.043320
O131	O13	0.890300	0.371800	0.997670
O141	O14	0.990500	0.122200	0.215250
O151	O15	0.973600	0.411500	0.043320
O161	O16	0.481500	0.109700	0.997670
O171	O17	0.131700	0.009500	0.215250
O181	O18	0.437900	0.026400	0.043320
O191	O19	0.890300	0.518500	0.502330
O201	O20	0.990500	0.868300	0.284750
O211	O21	0.973600	0.562100	0.456680
O221	O22	0.481500	0.371800	0.502330
O231	O23	0.131700	0.122200	0.284750
O241	O24	0.437900	0.411500	0.456680
O251	O25	0.628200	0.109700	0.502330
O261	O26	0.877800	0.009500	0.284750
O271	O27	0.588500	0.026400	0.456680
O281	O28	0.109700	0.481500	0.002330
O291	O29	0.009500	0.131700	0.784750
O301	O30	0.026400	0.437900	0.956680
O311	O31	0.518500	0.628200	0.002330
O321	O32	0.868300	0.877800	0.784750
O331	O33	0.562100	0.588500	0.956680
O341	O34	0.371800	0.890300	0.002330
O351	O35	0.122200	0.990500	0.784750
O361	O36	0.411500	0.973600	0.956680
O371	O37	0.628200	0.518500	0.502330
O381	O38	0.877800	0.868300	0.284750
O391	O39	0.588500	0.562100	0.456680
O401	O40	0.890300	0.371800	0.502330
O411	O41	0.990500	0.122200	0.284750
O421	O42	0.973600	0.411500	0.456680
O431	O43	0.481500	0.109700	0.502330
O441	O44	0.131700	0.009500	0.284750
O451	O45	0.437900	0.026400	0.456680
O461	O46	0.371800	0.481500	0.002330
O471	O47	0.122200	0.131700	0.784750
O481	O48	0.411500	0.437900	0.956680
O491	O49	0.109700	0.628200	0.002330
O501	O50	0.009500	0.877800	0.784750
O511	O51	0.026400	0.588500	0.956680
O521	O52	0.518500	0.890300	0.002330
O531	O53	0.868300	0.990500	0.784750
O541	O54	0.562100	0.973600	0.956680
O551	O55	0.109700	0.481500	0.497670
O561	O56	0.009500	0.131700	0.715250
O571	O57	0.026400	0.437900	0.543320
O581	O58	0.518500	0.628200	0.497670
O591	O59	0.868300	0.877800	0.715250
O601	O60	0.562100	0.588500	0.543320
O611	O61	0.371800	0.890300	0.497670
O621	O62	0.122200	0.990500	0.715250
O631	O63	0.411500	0.973600	0.543320
O641	O64	0.890300	0.518500	0.997670
O651	O65	0.990500	0.868300	0.215250
O661	O66	0.973600	0.562100	0.043320
O671	O67	0.481500	0.371800	0.997670
O681	O68	0.131700	0.122200	0.215250
O691	O69	0.437900	0.411500	0.043320
O701	O70	0.628200	0.109700	0.997670
O711	O71	0.877800	0.009500	0.215250
O721	O72	0.588500	0.026400	0.043320
