data_UKIQIP_clean_PM
_symmetry_space_group_name_H-M	'P1'
_cell_length_a	14.822900
_cell_length_b	19.213000
_cell_length_c	19.213000
_cell_angle_alpha	66.372000
_cell_angle_beta	75.097900
_cell_angle_gamma	104.902000
_symmetry_Int_Tables_number 1

loop_
_symmetry_equiv_pos_as_xyz
'x,y,z'

loop_
_atom_site_label
_atom_site_type_symbol
_atom_site_fract_x
_atom_site_fract_y
_atom_site_fract_z
Mn11	Mn1	0.923690	0.042350	0.671540
Mn21	Mn2	0.595230	0.671540	0.286110
Mn31	Mn3	0.881340	0.286110	0.042350
Mn41	Mn4	0.076310	0.957650	0.328460
Mn51	Mn5	0.404770	0.328460	0.713890
Mn61	Mn6	0.118660	0.713890	0.957650
Mn71	Mn7	0.000000	0.000000	0.500000
Mn81	Mn8	0.500000	0.500000	0.500000
Mn91	Mn9	0.000000	0.500000	0.000000
H11	H1	0.732000	0.634900	0.549000
H21	H2	0.855000	0.713500	0.582000
H31	H3	0.597900	0.453300	0.780200
H41	H4	0.703000	0.523800	0.823100
H51	H5	0.971400	0.808700	0.812800
H61	H6	0.841500	0.793200	0.657500
H71	H7	0.869100	0.589900	0.816300
H81	H8	0.281000	0.549000	0.816100
H91	H9	0.437000	0.582000	0.704500
H101	H10	0.378100	0.780200	0.766500
H111	H11	0.526100	0.823100	0.653100
H121	H12	0.784200	0.812800	0.378500
H131	H13	0.499000	0.657500	0.549300
H141	H14	0.685400	0.816300	0.593800
H151	H15	0.097100	0.816100	0.634900
H161	H16	0.141500	0.704500	0.713500
H171	H17	0.144600	0.766500	0.453300
H181	H18	0.179200	0.653100	0.523800
H191	H19	0.162700	0.378500	0.808700
H201	H20	0.048300	0.549300	0.793200
H211	H21	0.279200	0.593800	0.589900
H221	H22	0.268000	0.365100	0.451000
H231	H23	0.145000	0.286500	0.418000
H241	H24	0.402100	0.546700	0.219800
H251	H25	0.297000	0.476200	0.176900
H261	H26	0.028600	0.191300	0.187200
H271	H27	0.158500	0.206800	0.342500
H281	H28	0.130900	0.410100	0.183700
H291	H29	0.719000	0.451000	0.183900
H301	H30	0.563000	0.418000	0.295500
H311	H31	0.621900	0.219800	0.233500
H321	H32	0.473900	0.176900	0.346900
H331	H33	0.215800	0.187200	0.621500
H341	H34	0.501000	0.342500	0.450700
H351	H35	0.314600	0.183700	0.406200
H361	H36	0.902900	0.183900	0.365100
H371	H37	0.858500	0.295500	0.286500
H381	H38	0.855400	0.233500	0.546700
H391	H39	0.820800	0.346900	0.476200
H401	H40	0.837300	0.621500	0.191300
H411	H41	0.951700	0.450700	0.206800
H421	H42	0.720800	0.406200	0.410100
C11	C1	0.588700	0.486700	0.637800
C21	C2	0.658600	0.535300	0.663000
C31	C3	0.729300	0.613200	0.602600
C41	C4	0.801600	0.662800	0.622500
C51	C5	0.783800	0.627800	0.707800
C61	C6	0.649000	0.505700	0.740800
C71	C7	0.710600	0.547900	0.768000
C81	C8	0.967300	0.653900	0.888100
C91	C9	0.925300	0.690100	0.823500
C101	C10	0.939500	0.778000	0.792300
C111	C11	0.905300	0.813300	0.733400
C121	C12	0.860900	0.768100	0.700200
C131	C13	0.845300	0.682000	0.732900
C141	C14	0.879100	0.645500	0.795100
C151	C15	0.914400	0.900200	0.701800
C161	C16	0.226500	0.637800	0.875500
C171	C17	0.321600	0.663000	0.801700
C181	C18	0.331900	0.602600	0.784200
C191	C19	0.424100	0.622500	0.714700
C201	C20	0.491600	0.707800	0.664400
C211	C21	0.389800	0.740800	0.753500
C221	C22	0.478600	0.768000	0.684100
C231	C23	0.855400	0.888100	0.458000
C241	C24	0.748800	0.823500	0.486400
C251	C25	0.731800	0.792300	0.429700
C261	C26	0.638700	0.733400	0.453300
C271	C27	0.561100	0.700200	0.531700
C281	C28	0.578200	0.732900	0.585100
C291	C29	0.674200	0.795100	0.559400
C301	C30	0.616200	0.701800	0.398000
C311	C31	0.102000	0.875500	0.486700
C321	C32	0.123300	0.801700	0.535300
C331	C33	0.116100	0.784200	0.613200
C341	C34	0.138800	0.714700	0.662800
C351	C35	0.156000	0.664400	0.627800
C361	C36	0.143300	0.753500	0.505700
C371	C37	0.162700	0.684100	0.547900
C381	C38	0.313400	0.458000	0.653900
C391	C39	0.235200	0.486400	0.690100
C401	C40	0.161500	0.429700	0.778000
C411	C41	0.092000	0.453300	0.813300
C421	C42	0.092800	0.531700	0.768100
C431	C43	0.163300	0.585100	0.682000
C441	C44	0.233600	0.559400	0.645500
C451	C45	0.014200	0.398000	0.900200
C461	C46	0.411300	0.513300	0.362200
C471	C47	0.341400	0.464700	0.337000
C481	C48	0.270700	0.386800	0.397400
C491	C49	0.198400	0.337200	0.377500
C501	C50	0.216200	0.372200	0.292200
C511	C51	0.351000	0.494300	0.259200
C521	C52	0.289400	0.452100	0.232000
C531	C53	0.032700	0.346100	0.111900
C541	C54	0.074700	0.309900	0.176500
C551	C55	0.060500	0.222000	0.207700
C561	C56	0.094700	0.186700	0.266600
C571	C57	0.139100	0.231900	0.299800
C581	C58	0.154700	0.318000	0.267100
C591	C59	0.120900	0.354500	0.204900
C601	C60	0.085600	0.099800	0.298200
C611	C61	0.773500	0.362200	0.124500
C621	C62	0.678400	0.337000	0.198300
C631	C63	0.668100	0.397400	0.215800
C641	C64	0.575900	0.377500	0.285300
C651	C65	0.508400	0.292200	0.335600
C661	C66	0.610200	0.259200	0.246500
C671	C67	0.521400	0.232000	0.315900
C681	C68	0.144600	0.111900	0.542000
C691	C69	0.251200	0.176500	0.513600
C701	C70	0.268200	0.207700	0.570300
C711	C71	0.361300	0.266600	0.546700
C721	C72	0.438900	0.299800	0.468300
C731	C73	0.421800	0.267100	0.414900
C741	C74	0.325800	0.204900	0.440600
C751	C75	0.383800	0.298200	0.602000
C761	C76	0.898000	0.124500	0.513300
C771	C77	0.876700	0.198300	0.464700
C781	C78	0.883900	0.215800	0.386800
C791	C79	0.861200	0.285300	0.337200
C801	C80	0.844000	0.335600	0.372200
C811	C81	0.856700	0.246500	0.494300
C821	C82	0.837300	0.315900	0.452100
C831	C83	0.686600	0.542000	0.346100
C841	C84	0.764800	0.513600	0.309900
C851	C85	0.838500	0.570300	0.222000
C861	C86	0.908000	0.546700	0.186700
C871	C87	0.907200	0.468300	0.231900
C881	C88	0.836700	0.414900	0.318000
C891	C89	0.766400	0.440600	0.354500
C901	C90	0.985800	0.602000	0.099800
O11	O1	0.910300	0.941600	0.634600
O21	O2	0.956900	0.580800	0.916100
O31	O3	0.587900	0.519000	0.569600
O41	O4	0.527000	0.415500	0.695600
O51	O5	0.015700	0.708500	0.902800
O61	O6	0.922000	0.925400	0.753100
O71	O7	0.544900	0.634600	0.423800
O81	O8	0.873000	0.916100	0.503100
O91	O9	0.157500	0.569600	0.911400
O101	O10	0.222600	0.695600	0.888900
O111	O11	0.918500	0.902800	0.388700
O121	O12	0.675100	0.753100	0.321500
O131	O13	0.968700	0.423800	0.941600
O141	O14	0.376100	0.503100	0.580800
O151	O15	0.068900	0.911400	0.519000
O161	O16	0.111500	0.888900	0.415500
O171	O17	0.307200	0.388700	0.708500
O181	O18	0.996600	0.321500	0.925400
O191	O19	0.089700	0.058400	0.365400
O201	O20	0.043100	0.419200	0.083900
O211	O21	0.412100	0.481000	0.430400
O221	O22	0.473000	0.584500	0.304400
O231	O23	0.984300	0.291500	0.097200
O241	O24	0.078000	0.074600	0.246900
O251	O25	0.455100	0.365400	0.576200
O261	O26	0.127000	0.083900	0.496900
O271	O27	0.842500	0.430400	0.088600
O281	O28	0.777400	0.304400	0.111100
O291	O29	0.081500	0.097200	0.611300
O301	O30	0.324900	0.246900	0.678500
O311	O31	0.031300	0.576200	0.058400
O321	O32	0.623900	0.496900	0.419200
O331	O33	0.931100	0.088600	0.481000
O341	O34	0.888500	0.111100	0.584500
O351	O35	0.692800	0.611300	0.291500
O361	O36	0.003400	0.678500	0.074600
