data_UKOZOK_clean_PM
_symmetry_space_group_name_H-M	'P1'
_cell_length_a	28.795000
_cell_length_b	9.507800
_cell_length_c	27.736300
_cell_angle_alpha	90.000000
_cell_angle_beta	92.594000
_cell_angle_gamma	90.000000
_symmetry_Int_Tables_number 1

loop_
_symmetry_equiv_pos_as_xyz
'x,y,z'

loop_
_atom_site_label
_atom_site_type_symbol
_atom_site_fract_x
_atom_site_fract_y
_atom_site_fract_z
Bi11	Bi1	0.899900	0.416670	0.977840
O11	O1	0.928400	0.496700	0.051700
O21	O2	0.935100	0.700300	0.092600
O31	O3	0.929200	0.620500	0.966800
O41	O4	0.839500	0.581100	0.007800
O51	O5	0.809700	0.768600	0.039500
O61	O6	0.048500	0.792000	0.980100
O71	O7	0.025400	0.651000	0.036400
C11	C1	0.932400	0.631800	0.053900
C21	C2	0.929200	0.713800	0.005800
C31	C3	0.969900	0.816300	0.003900
H11	H1	0.966500	0.870100	0.974300
H21	H2	0.968200	0.881800	0.030600
C41	C4	0.884100	0.796100	0.005300
H31	H3	0.878400	0.835400	0.973300
H41	H4	0.887900	0.874000	0.027700
C51	C5	0.841300	0.710800	0.018500
C61	C6	0.017000	0.749900	0.006300
Bi21	Bi2	0.100100	0.583330	0.022160
O81	O8	0.071600	0.503300	0.948300
O91	O9	0.064900	0.299700	0.907400
O101	O10	0.070800	0.379500	0.033200
O111	O11	0.160500	0.418900	0.992200
O121	O12	0.190300	0.231400	0.960500
O131	O13	0.951500	0.208000	0.019900
O141	O14	0.974600	0.349000	0.963600
C71	C7	0.067600	0.368200	0.946100
C81	C8	0.070800	0.286200	0.994200
C91	C9	0.030100	0.183700	0.996100
H51	H5	0.033500	0.129900	0.025700
H61	H6	0.031800	0.118200	0.969400
C101	C10	0.115900	0.203900	0.994700
H71	H7	0.121600	0.164600	0.026700
H81	H8	0.112100	0.126000	0.972300
C111	C11	0.158700	0.289200	0.981500
C121	C12	0.983000	0.250100	0.993700
Bi31	Bi3	0.753650	0.550530	0.997850
O151	O15	0.687200	0.434200	0.009600
O161	O16	0.646000	0.347000	0.068300
O171	O17	0.766300	0.441700	0.065100
O181	O18	0.710800	0.693500	0.065100
O191	O19	0.698600	0.754400	0.140100
O201	O20	0.768600	0.043700	0.091600
O211	O21	0.721700	0.148600	0.037600
C131	C13	0.682400	0.396700	0.053400
C141	C14	0.725500	0.405600	0.088500
C151	C15	0.732800	0.262800	0.113700
H91	H9	0.758900	0.270300	0.137000
H101	H10	0.705400	0.240400	0.131200
C161	C16	0.715700	0.516300	0.126900
H111	H11	0.687800	0.489300	0.143000
H121	H12	0.741300	0.516600	0.150900
C171	C17	0.709300	0.663900	0.107200
C181	C18	0.742200	0.143300	0.078800
Bi41	Bi4	0.746350	0.949470	0.002150
O221	O22	0.812800	0.065800	0.990400
O231	O23	0.854000	0.153000	0.931700
O241	O24	0.733700	0.058300	0.934900
O251	O25	0.789200	0.806500	0.934900
O261	O26	0.801400	0.745600	0.859900
O271	O27	0.731400	0.456300	0.908400
O281	O28	0.778300	0.351400	0.962400
C191	C19	0.817600	0.103300	0.946600
C201	C20	0.774500	0.094400	0.911500
C211	C21	0.767200	0.237200	0.886300
H131	H13	0.741100	0.229700	0.863000
H141	H14	0.794600	0.259600	0.868800
C221	C22	0.784300	0.983700	0.873100
H151	H15	0.812200	0.010700	0.857000
H161	H16	0.758700	0.983400	0.849100
C231	C23	0.790700	0.836100	0.892800
C241	C24	0.757800	0.356700	0.921200
Bi51	Bi5	0.011010	0.587660	0.143210
Bi61	Bi6	0.988990	0.587660	0.356790
O291	O29	0.053400	0.761500	0.185800
O301	O30	0.122500	0.785200	0.222400
O311	O31	0.050900	0.488100	0.197900
O321	O32	0.158100	0.478300	0.103200
O331	O33	0.091100	0.580100	0.110800
O341	O34	0.046700	0.446000	0.322300
O351	O35	0.044000	0.663800	0.296000
C251	C25	0.090600	0.713000	0.208000
C261	C26	0.092300	0.556200	0.212900
C271	C27	0.103100	0.516000	0.264000
H171	H17	0.109800	0.415900	0.265900
H181	H18	0.130300	0.566600	0.276300
C281	C28	0.133000	0.496400	0.182200
H191	H19	0.135800	0.396200	0.188100
H201	H20	0.162000	0.539800	0.193700
C291	C29	0.127200	0.519700	0.128700
C301	C30	0.060400	0.551000	0.296000
O361	O36	0.946600	0.761500	0.314200
O371	O37	0.877500	0.785200	0.277600
O381	O38	0.949100	0.488100	0.302100
O391	O39	0.841900	0.478300	0.396800
O401	O40	0.908900	0.580100	0.389200
O411	O41	0.953300	0.446000	0.177700
O421	O42	0.956000	0.663800	0.204000
C311	C31	0.909400	0.713000	0.292000
C321	C32	0.907700	0.556200	0.287100
C331	C33	0.896900	0.516000	0.236000
H211	H21	0.890200	0.415900	0.234100
H221	H22	0.869700	0.566600	0.223700
C341	C34	0.867000	0.496400	0.317800
H231	H23	0.864200	0.396200	0.311900
H241	H24	0.838000	0.539800	0.306300
C351	C35	0.872800	0.519700	0.371300
C361	C36	0.939600	0.551000	0.204000
O431	O43	0.946600	0.238500	0.814200
O441	O44	0.877500	0.214800	0.777600
O451	O45	0.949100	0.511900	0.802100
O461	O46	0.841900	0.521700	0.896800
O471	O47	0.908900	0.419900	0.889200
O481	O48	0.953300	0.554000	0.677700
O491	O49	0.956000	0.336200	0.704000
C371	C37	0.909400	0.287000	0.792000
C381	C38	0.907700	0.443800	0.787100
C391	C39	0.896900	0.484000	0.736000
H251	H25	0.890200	0.584100	0.734100
H261	H26	0.869700	0.433400	0.723700
C401	C40	0.867000	0.503600	0.817800
H271	H27	0.864200	0.603800	0.811900
H281	H28	0.838000	0.460200	0.806300
C411	C41	0.872800	0.480300	0.871300
C421	C42	0.939600	0.449000	0.704000
O501	O50	0.053400	0.238500	0.685800
O511	O51	0.122500	0.214800	0.722400
O521	O52	0.050900	0.511900	0.697900
O531	O53	0.158100	0.521700	0.603200
O541	O54	0.091100	0.419900	0.610800
O551	O55	0.046700	0.554000	0.822300
O561	O56	0.044000	0.336200	0.796000
C431	C43	0.090600	0.287000	0.708000
C441	C44	0.092300	0.443800	0.712900
C451	C45	0.103100	0.484000	0.764000
H291	H29	0.109800	0.584100	0.765900
H301	H30	0.130300	0.433400	0.776300
C461	C46	0.133000	0.503600	0.682200
H311	H31	0.135800	0.603800	0.688100
H321	H32	0.162000	0.460200	0.693700
C471	C47	0.127200	0.480300	0.628700
C481	C48	0.060400	0.449000	0.796000
Bi71	Bi7	0.988990	0.412340	0.856790
Bi81	Bi8	0.011010	0.412340	0.643210
Bi91	Bi9	0.399900	0.916670	0.977840
O571	O57	0.428400	0.996700	0.051700
O581	O58	0.435100	0.200300	0.092600
O591	O59	0.429200	0.120500	0.966800
O601	O60	0.339500	0.081100	0.007800
O611	O61	0.309700	0.268600	0.039500
O621	O62	0.548500	0.292000	0.980100
O631	O63	0.525400	0.151000	0.036400
C491	C49	0.432400	0.131800	0.053900
C501	C50	0.429200	0.213800	0.005800
C511	C51	0.469900	0.316300	0.003900
H331	H33	0.466500	0.370100	0.974300
H341	H34	0.468200	0.381800	0.030600
C521	C52	0.384100	0.296100	0.005300
H351	H35	0.378400	0.335400	0.973300
H361	H36	0.387900	0.374000	0.027700
C531	C53	0.341300	0.210800	0.018500
C541	C54	0.517000	0.249900	0.006300
Bi101	Bi10	0.600100	0.083330	0.022160
O641	O64	0.571600	0.003300	0.948300
O651	O65	0.564900	0.799700	0.907400
O661	O66	0.570800	0.879500	0.033200
O671	O67	0.660500	0.918900	0.992200
O681	O68	0.690300	0.731400	0.960500
O691	O69	0.451500	0.708000	0.019900
O701	O70	0.474600	0.849000	0.963600
C551	C55	0.567600	0.868200	0.946100
C561	C56	0.570800	0.786200	0.994200
C571	C57	0.530100	0.683700	0.996100
H371	H37	0.533500	0.629900	0.025700
H381	H38	0.531800	0.618200	0.969400
C581	C58	0.615900	0.703900	0.994700
H391	H39	0.621600	0.664600	0.026700
H401	H40	0.612100	0.626000	0.972300
C591	C59	0.658700	0.789200	0.981500
C601	C60	0.483000	0.750100	0.993700
Bi111	Bi11	0.253650	0.050530	0.997850
O711	O71	0.187200	0.934200	0.009600
O721	O72	0.146000	0.847000	0.068300
O731	O73	0.266300	0.941700	0.065100
O741	O74	0.210800	0.193500	0.065100
O751	O75	0.198600	0.254400	0.140100
O761	O76	0.268600	0.543700	0.091600
O771	O77	0.221700	0.648600	0.037600
C611	C61	0.182400	0.896700	0.053400
C621	C62	0.225500	0.905600	0.088500
C631	C63	0.232800	0.762800	0.113700
H411	H41	0.258900	0.770300	0.137000
H421	H42	0.205400	0.740400	0.131200
C641	C64	0.215700	0.016300	0.126900
H431	H43	0.187800	0.989300	0.143000
H441	H44	0.241300	0.016600	0.150900
C651	C65	0.209300	0.163900	0.107200
C661	C66	0.242200	0.643300	0.078800
Bi121	Bi12	0.246350	0.449470	0.002150
O781	O78	0.312800	0.565800	0.990400
O791	O79	0.354000	0.653000	0.931700
O801	O80	0.233700	0.558300	0.934900
O811	O81	0.289200	0.306500	0.934900
O821	O82	0.301400	0.245600	0.859900
O831	O83	0.231400	0.956300	0.908400
O841	O84	0.278300	0.851400	0.962400
C671	C67	0.317600	0.603300	0.946600
C681	C68	0.274500	0.594400	0.911500
C691	C69	0.267200	0.737200	0.886300
H451	H45	0.241100	0.729700	0.863000
H461	H46	0.294600	0.759600	0.868800
C701	C70	0.284300	0.483700	0.873100
H471	H47	0.312200	0.510700	0.857000
H481	H48	0.258700	0.483400	0.849100
C711	C71	0.290700	0.336100	0.892800
C721	C72	0.257800	0.856700	0.921200
Bi131	Bi13	0.511010	0.087660	0.143210
Bi141	Bi14	0.488990	0.087660	0.356790
O851	O85	0.553400	0.261500	0.185800
O861	O86	0.622500	0.285200	0.222400
O871	O87	0.550900	0.988100	0.197900
O881	O88	0.658100	0.978300	0.103200
O891	O89	0.591100	0.080100	0.110800
O901	O90	0.546700	0.946000	0.322300
O911	O91	0.544000	0.163800	0.296000
C731	C73	0.590600	0.213000	0.208000
C741	C74	0.592300	0.056200	0.212900
C751	C75	0.603100	0.016000	0.264000
H491	H49	0.609800	0.915900	0.265900
H501	H50	0.630300	0.066600	0.276300
C761	C76	0.633000	0.996400	0.182200
H511	H51	0.635800	0.896200	0.188100
H521	H52	0.662000	0.039800	0.193700
C771	C77	0.627200	0.019700	0.128700
C781	C78	0.560400	0.051000	0.296000
O921	O92	0.446600	0.261500	0.314200
O931	O93	0.377500	0.285200	0.277600
O941	O94	0.449100	0.988100	0.302100
O951	O95	0.341900	0.978300	0.396800
O961	O96	0.408900	0.080100	0.389200
O971	O97	0.453300	0.946000	0.177700
O981	O98	0.456000	0.163800	0.204000
C791	C79	0.409400	0.213000	0.292000
C801	C80	0.407700	0.056200	0.287100
C811	C81	0.396900	0.016000	0.236000
H531	H53	0.390200	0.915900	0.234100
H541	H54	0.369700	0.066600	0.223700
C821	C82	0.367000	0.996400	0.317800
H551	H55	0.364200	0.896200	0.311900
H561	H56	0.338000	0.039800	0.306300
C831	C83	0.372800	0.019700	0.371300
C841	C84	0.439600	0.051000	0.204000
O991	O99	0.446600	0.738500	0.814200
O1001	O100	0.377500	0.714800	0.777600
O1011	O101	0.449100	0.011900	0.802100
O1021	O102	0.341900	0.021700	0.896800
O1031	O103	0.408900	0.919900	0.889200
O1041	O104	0.453300	0.054000	0.677700
O1051	O105	0.456000	0.836200	0.704000
C851	C85	0.409400	0.787000	0.792000
C861	C86	0.407700	0.943800	0.787100
C871	C87	0.396900	0.984000	0.736000
H571	H57	0.390200	0.084100	0.734100
H581	H58	0.369700	0.933400	0.723700
C881	C88	0.367000	0.003600	0.817800
H591	H59	0.364200	0.103800	0.811900
H601	H60	0.338000	0.960200	0.806300
C891	C89	0.372800	0.980300	0.871300
C901	C90	0.439600	0.949000	0.704000
O1061	O106	0.553400	0.738500	0.685800
O1071	O107	0.622500	0.714800	0.722400
O1081	O108	0.550900	0.011900	0.697900
O1091	O109	0.658100	0.021700	0.603200
O1101	O110	0.591100	0.919900	0.610800
O1111	O111	0.546700	0.054000	0.822300
O1121	O112	0.544000	0.836200	0.796000
C911	C91	0.590600	0.787000	0.708000
C921	C92	0.592300	0.943800	0.712900
C931	C93	0.603100	0.984000	0.764000
H611	H61	0.609800	0.084100	0.765900
H621	H62	0.630300	0.933400	0.776300
C941	C94	0.633000	0.003600	0.682200
H631	H63	0.635800	0.103800	0.688100
H641	H64	0.662000	0.960200	0.693700
C951	C95	0.627200	0.980300	0.628700
C961	C96	0.560400	0.949000	0.796000
Bi151	Bi15	0.488990	0.912340	0.856790
Bi161	Bi16	0.511010	0.912340	0.643210
Bi171	Bi17	0.100100	0.416670	0.522160
O1131	O113	0.071600	0.496700	0.448300
O1141	O114	0.064900	0.700300	0.407400
O1151	O115	0.070800	0.620500	0.533200
O1161	O116	0.160500	0.581100	0.492200
O1171	O117	0.190300	0.768600	0.460500
O1181	O118	0.951500	0.792000	0.519900
O1191	O119	0.974600	0.651000	0.463600
C971	C97	0.067600	0.631800	0.446100
C981	C98	0.070800	0.713800	0.494200
C991	C99	0.030100	0.816300	0.496100
H651	H65	0.033500	0.870100	0.525700
H661	H66	0.031800	0.881800	0.469400
C1001	C100	0.115900	0.796100	0.494700
H671	H67	0.121600	0.835400	0.526700
H681	H68	0.112100	0.874000	0.472300
C1011	C101	0.158700	0.710800	0.481500
C1021	C102	0.983000	0.749900	0.493700
Bi181	Bi18	0.899900	0.583330	0.477840
O1201	O120	0.928400	0.503300	0.551700
O1211	O121	0.935100	0.299700	0.592600
O1221	O122	0.929200	0.379500	0.466800
O1231	O123	0.839500	0.418900	0.507800
O1241	O124	0.809700	0.231400	0.539500
O1251	O125	0.048500	0.208000	0.480100
O1261	O126	0.025400	0.349000	0.536400
C1031	C103	0.932400	0.368200	0.553900
C1041	C104	0.929200	0.286200	0.505800
C1051	C105	0.969900	0.183700	0.503900
H691	H69	0.966500	0.129900	0.474300
H701	H70	0.968200	0.118200	0.530600
C1061	C106	0.884100	0.203900	0.505300
H711	H71	0.878400	0.164600	0.473300
H721	H72	0.887900	0.126000	0.527700
C1071	C107	0.841300	0.289200	0.518500
C1081	C108	0.017000	0.250100	0.506300
Bi191	Bi19	0.246350	0.550530	0.502150
O1271	O127	0.312800	0.434200	0.490400
O1281	O128	0.354000	0.347000	0.431700
O1291	O129	0.233700	0.441700	0.434900
O1301	O130	0.289200	0.693500	0.434900
O1311	O131	0.301400	0.754400	0.359900
O1321	O132	0.231400	0.043700	0.408400
O1331	O133	0.278300	0.148600	0.462400
C1091	C109	0.317600	0.396700	0.446600
C1101	C110	0.274500	0.405600	0.411500
C1111	C111	0.267200	0.262800	0.386300
H731	H73	0.241100	0.270300	0.363000
H741	H74	0.294600	0.240400	0.368800
C1121	C112	0.284300	0.516300	0.373100
H751	H75	0.312200	0.489300	0.357000
H761	H76	0.258700	0.516600	0.349100
C1131	C113	0.290700	0.663900	0.392800
C1141	C114	0.257800	0.143300	0.421200
Bi201	Bi20	0.253650	0.949470	0.497850
O1341	O134	0.187200	0.065800	0.509600
O1351	O135	0.146000	0.153000	0.568300
O1361	O136	0.266300	0.058300	0.565100
O1371	O137	0.210800	0.806500	0.565100
O1381	O138	0.198600	0.745600	0.640100
O1391	O139	0.268600	0.456300	0.591600
O1401	O140	0.221700	0.351400	0.537600
C1151	C115	0.182400	0.103300	0.553400
C1161	C116	0.225500	0.094400	0.588500
C1171	C117	0.232800	0.237200	0.613700
H771	H77	0.258900	0.229700	0.637000
H781	H78	0.205400	0.259600	0.631200
C1181	C118	0.215700	0.983700	0.626900
H791	H79	0.187800	0.010700	0.643000
H801	H80	0.241300	0.983400	0.650900
C1191	C119	0.209300	0.836100	0.607200
C1201	C120	0.242200	0.356700	0.578800
Bi211	Bi21	0.600100	0.916670	0.522160
O1411	O141	0.571600	0.996700	0.448300
O1421	O142	0.564900	0.200300	0.407400
O1431	O143	0.570800	0.120500	0.533200
O1441	O144	0.660500	0.081100	0.492200
O1451	O145	0.690300	0.268600	0.460500
O1461	O146	0.451500	0.292000	0.519900
O1471	O147	0.474600	0.151000	0.463600
C1211	C121	0.567600	0.131800	0.446100
C1221	C122	0.570800	0.213800	0.494200
C1231	C123	0.530100	0.316300	0.496100
H811	H81	0.533500	0.370100	0.525700
H821	H82	0.531800	0.381800	0.469400
C1241	C124	0.615900	0.296100	0.494700
H831	H83	0.621600	0.335400	0.526700
H841	H84	0.612100	0.374000	0.472300
C1251	C125	0.658700	0.210800	0.481500
C1261	C126	0.483000	0.249900	0.493700
Bi221	Bi22	0.399900	0.083330	0.477840
O1481	O148	0.428400	0.003300	0.551700
O1491	O149	0.435100	0.799700	0.592600
O1501	O150	0.429200	0.879500	0.466800
O1511	O151	0.339500	0.918900	0.507800
O1521	O152	0.309700	0.731400	0.539500
O1531	O153	0.548500	0.708000	0.480100
O1541	O154	0.525400	0.849000	0.536400
C1271	C127	0.432400	0.868200	0.553900
C1281	C128	0.429200	0.786200	0.505800
C1291	C129	0.469900	0.683700	0.503900
H851	H85	0.466500	0.629900	0.474300
H861	H86	0.468200	0.618200	0.530600
C1301	C130	0.384100	0.703900	0.505300
H871	H87	0.378400	0.664600	0.473300
H881	H88	0.387900	0.626000	0.527700
C1311	C131	0.341300	0.789200	0.518500
C1321	C132	0.517000	0.750100	0.506300
Bi231	Bi23	0.746350	0.050530	0.502150
O1551	O155	0.812800	0.934200	0.490400
O1561	O156	0.854000	0.847000	0.431700
O1571	O157	0.733700	0.941700	0.434900
O1581	O158	0.789200	0.193500	0.434900
O1591	O159	0.801400	0.254400	0.359900
O1601	O160	0.731400	0.543700	0.408400
O1611	O161	0.778300	0.648600	0.462400
C1331	C133	0.817600	0.896700	0.446600
C1341	C134	0.774500	0.905600	0.411500
C1351	C135	0.767200	0.762800	0.386300
H891	H89	0.741100	0.770300	0.363000
H901	H90	0.794600	0.740400	0.368800
C1361	C136	0.784300	0.016300	0.373100
H911	H91	0.812200	0.989300	0.357000
H921	H92	0.758700	0.016600	0.349100
C1371	C137	0.790700	0.163900	0.392800
C1381	C138	0.757800	0.643300	0.421200
Bi241	Bi24	0.753650	0.449470	0.497850
O1621	O162	0.687200	0.565800	0.509600
O1631	O163	0.646000	0.653000	0.568300
O1641	O164	0.766300	0.558300	0.565100
O1651	O165	0.710800	0.306500	0.565100
O1661	O166	0.698600	0.245600	0.640100
O1671	O167	0.768600	0.956300	0.591600
O1681	O168	0.721700	0.851400	0.537600
C1391	C139	0.682400	0.603300	0.553400
C1401	C140	0.725500	0.594400	0.588500
C1411	C141	0.732800	0.737200	0.613700
H931	H93	0.758900	0.729700	0.637000
H941	H94	0.705400	0.759600	0.631200
C1421	C142	0.715700	0.483700	0.626900
H951	H95	0.687800	0.510700	0.643000
H961	H96	0.741300	0.483400	0.650900
C1431	C143	0.709300	0.336100	0.607200
C1441	C144	0.742200	0.856700	0.578800
