data_UKULOB01_clean_PM
_symmetry_space_group_name_H-M	'P1'
_cell_length_a	7.385200
_cell_length_b	13.296200
_cell_length_c	14.703500
_cell_angle_alpha	90.000000
_cell_angle_beta	91.441000
_cell_angle_gamma	90.000000
_symmetry_Int_Tables_number 1

loop_
_symmetry_equiv_pos_as_xyz
'x,y,z'

loop_
_atom_site_label
_atom_site_type_symbol
_atom_site_fract_x
_atom_site_fract_y
_atom_site_fract_z
Fe11	Fe1	0.500000	0.500000	0.000000
Fe21	Fe2	0.000000	0.000000	0.000000
Fe31	Fe3	0.000000	0.000000	0.500000
Fe41	Fe4	0.500000	0.500000	0.500000
Ag11	Ag1	0.730040	0.245000	0.749680
Ag21	Ag2	0.971770	0.443270	0.771090
Ag31	Ag3	0.769960	0.745000	0.250320
Ag41	Ag4	0.528230	0.943270	0.228900
Ag51	Ag5	0.269960	0.755000	0.250320
Ag61	Ag6	0.028230	0.556730	0.228900
Ag71	Ag7	0.230040	0.255000	0.749680
Ag81	Ag8	0.471770	0.056730	0.771090
H11	H1	0.435000	0.269000	0.019000
H21	H2	0.447000	0.143000	0.122000
H31	H3	0.523000	0.185000	0.274000
H41	H4	0.539000	0.463000	0.206700
H51	H5	0.065000	0.769000	0.981000
H61	H6	0.053000	0.643000	0.878000
H71	H7	0.977000	0.685000	0.726000
H81	H8	0.961000	0.963000	0.793300
H91	H9	0.565000	0.731000	0.981000
H101	H10	0.553000	0.857000	0.878000
H111	H11	0.477000	0.815000	0.726000
H121	H12	0.461000	0.537000	0.793300
H131	H13	0.935000	0.231000	0.019000
H141	H14	0.947000	0.357000	0.122000
H151	H15	0.023000	0.315000	0.274000
H161	H16	0.039000	0.037000	0.206700
C11	C1	0.661200	0.339060	0.854830
C21	C2	0.140200	0.442640	0.885030
C31	C3	0.459400	0.283780	0.079430
C41	C4	0.470700	0.206600	0.141480
C51	C5	0.507600	0.231300	0.230670
C61	C6	0.519000	0.396160	0.192790
C71	C7	0.805500	0.152140	0.645010
C81	C8	0.813600	0.479080	0.658260
C91	C9	0.838800	0.839060	0.145170
C101	C10	0.359800	0.942640	0.114970
C111	C11	0.040600	0.783780	0.920570
C121	C12	0.029300	0.706600	0.858520
C131	C13	0.992400	0.731300	0.769330
C141	C14	0.981000	0.896160	0.807210
C151	C15	0.694500	0.652140	0.354990
C161	C16	0.686400	0.979080	0.341740
C171	C17	0.338800	0.660940	0.145170
C181	C18	0.859800	0.557360	0.114970
C191	C19	0.540600	0.716220	0.920570
C201	C20	0.529300	0.793400	0.858520
C211	C21	0.492400	0.768700	0.769330
C221	C22	0.481000	0.603840	0.807210
C231	C23	0.194500	0.847860	0.354990
C241	C24	0.186400	0.520920	0.341740
C251	C25	0.161200	0.160940	0.854830
C261	C26	0.640200	0.057360	0.885030
C271	C27	0.959400	0.216220	0.079430
C281	C28	0.970700	0.293400	0.141480
C291	C29	0.007600	0.268700	0.230670
C301	C30	0.019000	0.103840	0.192790
C311	C31	0.305500	0.347860	0.645010
C321	C32	0.313600	0.020920	0.658260
N11	N1	0.620800	0.394260	0.910260
N21	N2	0.246000	0.453320	0.942150
N31	N3	0.485500	0.379460	0.104400
N41	N4	0.532000	0.326430	0.257520
N51	N5	0.852800	0.099120	0.589980
N61	N6	0.715700	0.498300	0.599790
N71	N7	0.879200	0.894260	0.089740
N81	N8	0.254000	0.953320	0.057850
N91	N9	0.014500	0.879460	0.895600
N101	N10	0.968000	0.826430	0.742480
N111	N11	0.647200	0.599120	0.410020
N121	N12	0.784300	0.998300	0.400210
N131	N13	0.379200	0.605740	0.089740
N141	N14	0.754000	0.546680	0.057850
N151	N15	0.514500	0.620540	0.895600
N161	N16	0.468000	0.673570	0.742480
N171	N17	0.147200	0.900880	0.410020
N181	N18	0.284300	0.501700	0.400210
N191	N19	0.120800	0.105740	0.910260
N201	N20	0.746000	0.046680	0.942150
N211	N21	0.985500	0.120540	0.104400
N221	N22	0.032000	0.173570	0.257520
N231	N23	0.352800	0.400880	0.589980
N241	N24	0.215700	0.001700	0.599790
