data_UKULOB_clean_PM
_symmetry_space_group_name_H-M	'P1'
_cell_length_a	7.493000
_cell_length_b	13.052800
_cell_length_c	14.258400
_cell_angle_alpha	90.000000
_cell_angle_beta	92.055000
_cell_angle_gamma	90.000000
_symmetry_Int_Tables_number 1

loop_
_symmetry_equiv_pos_as_xyz
'x,y,z'

loop_
_atom_site_label
_atom_site_type_symbol
_atom_site_fract_x
_atom_site_fract_y
_atom_site_fract_z
Fe11	Fe1	0.500000	0.500000	0.000000
Fe21	Fe2	0.000000	0.000000	0.000000
Fe31	Fe3	0.000000	0.000000	0.500000
Fe41	Fe4	0.500000	0.500000	0.500000
Ag11	Ag1	0.729490	0.244620	0.759320
Ag21	Ag2	0.963950	0.444830	0.783240
Ag31	Ag3	0.770510	0.744620	0.240680
Ag41	Ag4	0.536050	0.944830	0.216760
Ag51	Ag5	0.270510	0.755380	0.240680
Ag61	Ag6	0.036050	0.555170	0.216760
Ag71	Ag7	0.229490	0.255380	0.759320
Ag81	Ag8	0.463950	0.055170	0.783240
H11	H1	0.387000	0.288000	0.005000
H21	H2	0.382000	0.153000	0.113000
H31	H3	0.478000	0.196000	0.265000
H41	H4	0.541000	0.479000	0.209000
H51	H5	0.113000	0.788000	0.995000
H61	H6	0.118000	0.653000	0.887000
H71	H7	0.022000	0.696000	0.735000
H81	H8	0.959000	0.979000	0.791000
H91	H9	0.613000	0.712000	0.995000
H101	H10	0.618000	0.847000	0.887000
H111	H11	0.522000	0.804000	0.735000
H121	H12	0.459000	0.521000	0.791000
H131	H13	0.887000	0.212000	0.005000
H141	H14	0.882000	0.347000	0.113000
H151	H15	0.978000	0.304000	0.265000
H161	H16	0.041000	0.021000	0.209000
C11	C1	0.658300	0.342700	0.865100
C21	C2	0.148600	0.446700	0.893800
C31	C3	0.423900	0.294200	0.069500
C41	C4	0.421500	0.214800	0.133200
C51	C5	0.470800	0.236900	0.225300
C61	C6	0.514600	0.404100	0.187370
C71	C7	0.804900	0.150800	0.651500
C81	C8	0.808100	0.480200	0.665400
C91	C9	0.841700	0.842700	0.134900
C101	C10	0.351400	0.946700	0.106200
C111	C11	0.076100	0.794200	0.930500
C121	C12	0.078500	0.714800	0.866800
C131	C13	0.029200	0.736900	0.774700
C141	C14	0.985400	0.904100	0.812630
C151	C15	0.695100	0.650800	0.348500
C161	C16	0.691900	0.980200	0.334600
C171	C17	0.341700	0.657300	0.134900
C181	C18	0.851400	0.553300	0.106200
C191	C19	0.576100	0.705800	0.930500
C201	C20	0.578500	0.785200	0.866800
C211	C21	0.529200	0.763100	0.774700
C221	C22	0.485400	0.595900	0.812630
C231	C23	0.195100	0.849200	0.348500
C241	C24	0.191900	0.519800	0.334600
C251	C25	0.158300	0.157300	0.865100
C261	C26	0.648600	0.053300	0.893800
C271	C27	0.923900	0.205800	0.069500
C281	C28	0.921500	0.285200	0.133200
C291	C29	0.970800	0.263100	0.225300
C301	C30	0.014600	0.095900	0.187370
C311	C31	0.304900	0.349200	0.651500
C321	C32	0.308100	0.019800	0.665400
N11	N1	0.609000	0.401860	0.918390
N21	N2	0.272200	0.464040	0.941690
N31	N3	0.473200	0.389760	0.095190
N41	N4	0.516200	0.331400	0.252830
N51	N5	0.853600	0.097800	0.593960
N61	N6	0.712800	0.499440	0.603800
N71	N7	0.891000	0.901860	0.081610
N81	N8	0.227800	0.964040	0.058310
N91	N9	0.026800	0.889760	0.904810
N101	N10	0.983800	0.831400	0.747170
N111	N11	0.646400	0.597800	0.406040
N121	N12	0.787200	0.999440	0.396200
N131	N13	0.391000	0.598140	0.081610
N141	N14	0.727800	0.535960	0.058310
N151	N15	0.526800	0.610240	0.904810
N161	N16	0.483800	0.668600	0.747170
N171	N17	0.146400	0.902200	0.406040
N181	N18	0.287200	0.500560	0.396200
N191	N19	0.109000	0.098140	0.918390
N201	N20	0.772200	0.035960	0.941690
N211	N21	0.973200	0.110240	0.095190
N221	N22	0.016200	0.168600	0.252830
N231	N23	0.353600	0.402200	0.593960
N241	N24	0.212800	0.000560	0.603800
