data_UKUMAO_clean_PM
_symmetry_space_group_name_H-M	'P1'
_cell_length_a	7.430600
_cell_length_b	13.177000
_cell_length_c	14.019400
_cell_angle_alpha	90.000000
_cell_angle_beta	91.378000
_cell_angle_gamma	90.000000
_symmetry_Int_Tables_number 1

loop_
_symmetry_equiv_pos_as_xyz
'x,y,z'

loop_
_atom_site_label
_atom_site_type_symbol
_atom_site_fract_x
_atom_site_fract_y
_atom_site_fract_z
Fe11	Fe1	0.500000	0.500000	0.000000
Fe21	Fe2	0.000000	0.000000	0.000000
Fe31	Fe3	0.000000	0.000000	0.500000
Fe41	Fe4	0.500000	0.500000	0.500000
H11	H1	0.375000	0.284000	0.011000
H21	H2	0.372000	0.154000	0.115000
H31	H3	0.457000	0.190000	0.263000
H41	H4	0.526000	0.459000	0.204000
H51	H5	0.125000	0.784000	0.989000
H61	H6	0.128000	0.654000	0.885000
H71	H7	0.043000	0.690000	0.737000
H81	H8	0.974000	0.959000	0.796000
H91	H9	0.625000	0.716000	0.989000
H101	H10	0.628000	0.846000	0.885000
H111	H11	0.543000	0.810000	0.737000
H121	H12	0.474000	0.541000	0.796000
H131	H13	0.875000	0.216000	0.011000
H141	H14	0.872000	0.346000	0.115000
H151	H15	0.957000	0.310000	0.263000
H161	H16	0.026000	0.041000	0.204000
Au11	Au1	0.731540	0.247350	0.759330
Au21	Au2	0.977120	0.460330	0.776430
Au31	Au3	0.768460	0.747350	0.240670
Au41	Au4	0.522880	0.960330	0.223570
Au51	Au5	0.268460	0.752650	0.240670
Au61	Au6	0.022880	0.539670	0.223570
Au71	Au7	0.231540	0.252650	0.759330
Au81	Au8	0.477120	0.039670	0.776430
C11	C1	0.653200	0.340300	0.861400
C21	C2	0.150500	0.459200	0.885500
C31	C3	0.400400	0.299600	0.068900
C41	C4	0.393200	0.219800	0.133200
C51	C5	0.444300	0.239400	0.225400
C61	C6	0.499000	0.404500	0.187800
C71	C7	0.810800	0.155500	0.654800
C81	C8	0.816900	0.483100	0.663900
C91	C9	0.846800	0.840300	0.138600
C101	C10	0.349500	0.959200	0.114500
C111	C11	0.099600	0.799600	0.931100
C121	C12	0.106800	0.719800	0.866800
C131	C13	0.055700	0.739400	0.774600
C141	C14	0.001000	0.904500	0.812200
C151	C15	0.689200	0.655500	0.345200
C161	C16	0.683100	0.983100	0.336100
C171	C17	0.346800	0.659700	0.138600
C181	C18	0.849500	0.540800	0.114500
C191	C19	0.599600	0.700400	0.931100
C201	C20	0.606800	0.780200	0.866800
C211	C21	0.555700	0.760600	0.774600
C221	C22	0.501000	0.595500	0.812200
C231	C23	0.189200	0.844500	0.345200
C241	C24	0.183100	0.516900	0.336100
C251	C25	0.153200	0.159700	0.861400
C261	C26	0.650500	0.040800	0.885500
C271	C27	0.900400	0.200400	0.068900
C281	C28	0.893200	0.280200	0.133200
C291	C29	0.944300	0.260600	0.225400
C301	C30	0.999000	0.095500	0.187800
C311	C31	0.310800	0.344500	0.654800
C321	C32	0.316900	0.016900	0.663900
N11	N1	0.605100	0.398500	0.917000
N21	N2	0.270600	0.471300	0.938300
N31	N3	0.458200	0.392600	0.096400
N41	N4	0.497500	0.332500	0.254300
N51	N5	0.857100	0.100800	0.597400
N61	N6	0.717800	0.500200	0.602000
N71	N7	0.894900	0.898500	0.083000
N81	N8	0.229400	0.971300	0.061700
N91	N9	0.041800	0.892600	0.903600
N101	N10	0.002500	0.832500	0.745700
N111	N11	0.642900	0.600800	0.402600
N121	N12	0.782200	0.000200	0.398000
N131	N13	0.394900	0.601500	0.083000
N141	N14	0.729400	0.528700	0.061700
N151	N15	0.541800	0.607400	0.903600
N161	N16	0.502500	0.667500	0.745700
N171	N17	0.142900	0.899200	0.402600
N181	N18	0.282200	0.499800	0.398000
N191	N19	0.105100	0.101500	0.917000
N201	N20	0.770600	0.028700	0.938300
N211	N21	0.958200	0.107400	0.096400
N221	N22	0.997500	0.167500	0.254300
N231	N23	0.357100	0.399200	0.597400
N241	N24	0.217800	0.999800	0.602000
