data_ULAQEF_clean_PM
_symmetry_space_group_name_H-M	'P1'
_cell_length_a	11.838000
_cell_length_b	24.772000
_cell_length_c	15.773000
_cell_angle_alpha	90.000000
_cell_angle_beta	96.834000
_cell_angle_gamma	90.000000
_symmetry_Int_Tables_number 1

loop_
_symmetry_equiv_pos_as_xyz
'x,y,z'

loop_
_atom_site_label
_atom_site_type_symbol
_atom_site_fract_x
_atom_site_fract_y
_atom_site_fract_z
Co11	Co1	0.911880	0.335030	0.007530
C11	C1	0.018500	0.374320	0.174100
C21	C2	0.979700	0.372300	0.259300
H11	H1	0.928300	0.402400	0.263700
H21	H2	0.935700	0.339500	0.262700
C31	C3	0.124200	0.608630	0.151600
C41	C4	0.105400	0.557090	0.200900
H31	H3	0.024500	0.550200	0.198900
H41	H4	0.139400	0.526800	0.174300
C51	C5	0.103200	0.467750	0.305000
H51	H5	0.069900	0.465300	0.248700
C61	C6	0.150000	0.515610	0.335700
C71	C7	0.199400	0.520770	0.419700
C81	C8	0.202000	0.474740	0.470600
H61	H6	0.236000	0.477000	0.526700
C91	C9	0.156200	0.425540	0.441400
C101	C10	0.105800	0.423100	0.358200
C111	C11	0.159100	0.374790	0.497800
H71	H7	0.184200	0.345100	0.463400
C121	C12	0.247700	0.379690	0.575700
C131	C13	0.228700	0.407400	0.647500
H81	H8	0.156100	0.420400	0.652500
C141	C14	0.315400	0.416500	0.712900
H91	H9	0.300400	0.435800	0.761000
C151	C15	0.423600	0.397300	0.707800
C161	C16	0.520600	0.410600	0.779200
H101	H10	0.589800	0.394000	0.766200
H111	H11	0.501500	0.396900	0.832600
H121	H12	0.530800	0.449000	0.783000
C171	C17	0.441400	0.368200	0.637400
H131	H13	0.513300	0.354100	0.633100
C181	C18	0.355700	0.359300	0.572900
H141	H14	0.370500	0.338900	0.525900
C191	C19	0.182000	0.180900	0.526700
C201	C20	0.077900	0.213570	0.534400
H151	H15	0.017200	0.202300	0.491200
H161	H16	0.052900	0.207700	0.590000
C211	C21	0.572200	0.246380	0.534300
C221	C22	0.652500	0.286390	0.503400
H171	H17	0.703100	0.268000	0.468800
H181	H18	0.609700	0.313000	0.467700
C231	C23	0.907400	0.289790	0.547900
H191	H19	0.890200	0.253500	0.554700
C241	C24	0.825900	0.328900	0.554900
C251	C25	0.848300	0.383330	0.545600
C261	C26	0.957100	0.397090	0.527900
H201	H20	0.973900	0.433400	0.521400
C271	C27	0.041800	0.359450	0.519400
C281	C28	0.015000	0.304920	0.530800
C291	C29	0.754400	0.424620	0.548800
H211	H21	0.707500	0.411600	0.591700
C301	C30	0.676200	0.426540	0.464200
C311	C31	0.714100	0.414400	0.388000
H221	H22	0.790500	0.406400	0.386300
C321	C32	0.638600	0.414100	0.311800
H231	H23	0.665900	0.405700	0.260500
C331	C33	0.526000	0.425900	0.312200
C341	C34	0.444700	0.424300	0.228700
H241	H24	0.486400	0.414600	0.182300
H251	H25	0.410900	0.459200	0.218000
H261	H26	0.386100	0.398100	0.233500
C351	C35	0.489400	0.438600	0.388100
H271	H27	0.413200	0.447400	0.389400
C361	C36	0.562500	0.438800	0.464000
H281	H28	0.534500	0.447300	0.515000
O11	O1	0.935800	0.374170	0.114900
O21	O2	0.119900	0.376190	0.165800
O31	O3	0.089300	0.603580	0.071560
O41	O4	0.164800	0.648710	0.184900
O51	O5	0.269900	0.203970	0.511300
O61	O6	0.170500	0.131730	0.534200
O71	O7	0.516400	0.219490	0.473670
O81	O8	0.560600	0.241590	0.610000
O91	O9	0.062400	0.373780	0.330850
O101	O10	0.153400	0.561470	0.285610
O111	O11	0.717800	0.312790	0.572450
O121	O12	0.101300	0.269000	0.523950
Co21	Co2	0.588120	0.835030	0.492470
C371	C37	0.481500	0.874320	0.325900
C381	C38	0.520300	0.872300	0.240700
H291	H29	0.571700	0.902400	0.236300
H301	H30	0.564300	0.839500	0.237300
C391	C39	0.375800	0.108630	0.348400
C401	C40	0.394600	0.057090	0.299100
H311	H31	0.475500	0.050200	0.301100
H321	H32	0.360600	0.026800	0.325700
C411	C41	0.396800	0.967750	0.195000
H331	H33	0.430100	0.965300	0.251300
C421	C42	0.350000	0.015610	0.164300
C431	C43	0.300600	0.020770	0.080300
C441	C44	0.298000	0.974740	0.029400
H341	H34	0.264000	0.977000	0.973300
C451	C45	0.343800	0.925540	0.058600
C461	C46	0.394200	0.923100	0.141800
C471	C47	0.340900	0.874790	0.002200
H351	H35	0.315800	0.845100	0.036600
C481	C48	0.252300	0.879690	0.924300
C491	C49	0.271300	0.907400	0.852500
H361	H36	0.343900	0.920400	0.847500
C501	C50	0.184600	0.916500	0.787100
H371	H37	0.199600	0.935800	0.739000
C511	C51	0.076400	0.897300	0.792200
C521	C52	0.979400	0.910600	0.720800
H381	H38	0.910200	0.894000	0.733800
H391	H39	0.998500	0.896900	0.667400
H401	H40	0.969200	0.949000	0.717000
C531	C53	0.058600	0.868200	0.862600
H411	H41	0.986700	0.854100	0.866900
C541	C54	0.144300	0.859300	0.927100
H421	H42	0.129500	0.838900	0.974100
C551	C55	0.318000	0.680900	0.973300
C561	C56	0.422100	0.713570	0.965600
H431	H43	0.482800	0.702300	0.008800
H441	H44	0.447100	0.707700	0.910000
C571	C57	0.927800	0.746380	0.965700
C581	C58	0.847500	0.786390	0.996600
H451	H45	0.796900	0.768000	0.031200
H461	H46	0.890300	0.813000	0.032300
C591	C59	0.592600	0.789790	0.952100
H471	H47	0.609800	0.753500	0.945300
C601	C60	0.674100	0.828900	0.945100
C611	C61	0.651700	0.883330	0.954400
C621	C62	0.542900	0.897090	0.972100
H481	H48	0.526100	0.933400	0.978600
C631	C63	0.458200	0.859450	0.980600
C641	C64	0.485000	0.804920	0.969200
C651	C65	0.745600	0.924620	0.951200
H491	H49	0.792500	0.911600	0.908300
C661	C66	0.823800	0.926540	0.035800
C671	C67	0.785900	0.914400	0.112000
H501	H50	0.709500	0.906400	0.113700
C681	C68	0.861400	0.914100	0.188200
H511	H51	0.834100	0.905700	0.239500
C691	C69	0.974000	0.925900	0.187800
C701	C70	0.055300	0.924300	0.271300
H521	H52	0.013600	0.914600	0.317700
H531	H53	0.089100	0.959200	0.282000
H541	H54	0.113900	0.898100	0.266500
C711	C71	0.010600	0.938600	0.111900
H551	H55	0.086800	0.947400	0.110600
C721	C72	0.937500	0.938800	0.036000
H561	H56	0.965500	0.947300	0.985000
O131	O13	0.564200	0.874170	0.385100
O141	O14	0.380100	0.876190	0.334200
O151	O15	0.410700	0.103580	0.428440
O161	O16	0.335200	0.148710	0.315100
O171	O17	0.230100	0.703970	0.988700
O181	O18	0.329500	0.631730	0.965800
O191	O19	0.983600	0.719490	0.026330
O201	O20	0.939400	0.741590	0.890000
O211	O21	0.437600	0.873780	0.169150
O221	O22	0.346600	0.061470	0.214390
O231	O23	0.782200	0.812790	0.927550
O241	O24	0.398700	0.769000	0.976050
Co31	Co3	0.088120	0.664970	0.992470
C731	C73	0.981500	0.625680	0.825900
C741	C74	0.020300	0.627700	0.740700
H571	H57	0.071700	0.597600	0.736300
H581	H58	0.064300	0.660500	0.737300
C751	C75	0.875800	0.391370	0.848400
C761	C76	0.894600	0.442910	0.799100
H591	H59	0.975500	0.449800	0.801100
H601	H60	0.860600	0.473200	0.825700
C771	C77	0.896800	0.532250	0.695000
H611	H61	0.930100	0.534700	0.751300
C781	C78	0.850000	0.484390	0.664300
C791	C79	0.800600	0.479230	0.580300
C801	C80	0.798000	0.525260	0.529400
H621	H62	0.764000	0.523000	0.473300
C811	C81	0.843800	0.574460	0.558600
C821	C82	0.894200	0.576900	0.641800
C831	C83	0.840900	0.625210	0.502200
H631	H63	0.815800	0.654900	0.536600
C841	C84	0.752300	0.620310	0.424300
C851	C85	0.771300	0.592600	0.352500
H641	H64	0.843900	0.579600	0.347500
C861	C86	0.684600	0.583500	0.287100
H651	H65	0.699600	0.564200	0.239000
C871	C87	0.576400	0.602700	0.292200
C881	C88	0.479400	0.589400	0.220800
H661	H66	0.410200	0.606000	0.233800
H671	H67	0.498500	0.603100	0.167400
H681	H68	0.469200	0.551000	0.217000
C891	C89	0.558600	0.631800	0.362600
H691	H69	0.486700	0.645900	0.366900
C901	C90	0.644300	0.640700	0.427100
H701	H70	0.629500	0.661100	0.474100
C911	C91	0.818000	0.819100	0.473300
C921	C92	0.922100	0.786430	0.465600
H711	H71	0.982800	0.797700	0.508800
H721	H72	0.947100	0.792300	0.410000
C931	C93	0.427800	0.753620	0.465700
C941	C94	0.347500	0.713610	0.496600
H731	H73	0.296900	0.732000	0.531200
H741	H74	0.390300	0.687000	0.532300
C951	C95	0.092600	0.710210	0.452100
H751	H75	0.109800	0.746500	0.445300
C961	C96	0.174100	0.671100	0.445100
C971	C97	0.151700	0.616670	0.454400
C981	C98	0.042900	0.602910	0.472100
H761	H76	0.026100	0.566600	0.478600
C991	C99	0.958200	0.640550	0.480600
C1001	C100	0.985000	0.695080	0.469200
C1011	C101	0.245600	0.575380	0.451200
H771	H77	0.292500	0.588400	0.408300
C1021	C102	0.323800	0.573460	0.535800
C1031	C103	0.285900	0.585600	0.612000
H781	H78	0.209500	0.593600	0.613700
C1041	C104	0.361400	0.585900	0.688200
H791	H79	0.334100	0.594300	0.739500
C1051	C105	0.474000	0.574100	0.687800
C1061	C106	0.555300	0.575700	0.771300
H801	H80	0.513600	0.585400	0.817700
H811	H81	0.589100	0.540800	0.782000
H821	H82	0.613900	0.601900	0.766500
C1071	C107	0.510600	0.561400	0.611900
H831	H83	0.586800	0.552600	0.610600
C1081	C108	0.437500	0.561200	0.536000
H841	H84	0.465500	0.552700	0.485000
O251	O25	0.064200	0.625830	0.885100
O261	O26	0.880100	0.623810	0.834200
O271	O27	0.910700	0.396420	0.928440
O281	O28	0.835200	0.351290	0.815100
O291	O29	0.730100	0.796030	0.488700
O301	O30	0.829500	0.868270	0.465800
O311	O31	0.483600	0.780510	0.526330
O321	O32	0.439400	0.758410	0.390000
O331	O33	0.937600	0.626220	0.669150
O341	O34	0.846600	0.438530	0.714390
O351	O35	0.282200	0.687210	0.427550
O361	O36	0.898700	0.731000	0.476050
Co41	Co4	0.411880	0.164970	0.507530
C1091	C109	0.518500	0.125680	0.674100
C1101	C110	0.479700	0.127700	0.759300
H851	H85	0.428300	0.097600	0.763700
H861	H86	0.435700	0.160500	0.762700
C1111	C111	0.624200	0.891370	0.651600
C1121	C112	0.605400	0.942910	0.700900
H871	H87	0.524500	0.949800	0.698900
H881	H88	0.639400	0.973200	0.674300
C1131	C113	0.603200	0.032250	0.805000
H891	H89	0.569900	0.034700	0.748700
C1141	C114	0.650000	0.984390	0.835700
C1151	C115	0.699400	0.979230	0.919700
C1161	C116	0.702000	0.025260	0.970600
H901	H90	0.736000	0.023000	0.026700
C1171	C117	0.656200	0.074460	0.941400
C1181	C118	0.605800	0.076900	0.858200
C1191	C119	0.659100	0.125210	0.997800
H911	H91	0.684200	0.154900	0.963400
C1201	C120	0.747700	0.120310	0.075700
C1211	C121	0.728700	0.092600	0.147500
H921	H92	0.656100	0.079600	0.152500
C1221	C122	0.815400	0.083500	0.212900
H931	H93	0.800400	0.064200	0.261000
C1231	C123	0.923600	0.102700	0.207800
C1241	C124	0.020600	0.089400	0.279200
H941	H94	0.089800	0.106000	0.266200
H951	H95	0.001500	0.103100	0.332600
H961	H96	0.030800	0.051000	0.283000
C1251	C125	0.941400	0.131800	0.137400
H971	H97	0.013300	0.145900	0.133100
C1261	C126	0.855700	0.140700	0.072900
H981	H98	0.870500	0.161100	0.025900
C1271	C127	0.682000	0.319100	0.026700
C1281	C128	0.577900	0.286430	0.034400
H991	H99	0.517200	0.297700	0.991200
H1001	H100	0.552900	0.292300	0.090000
C1291	C129	0.072200	0.253620	0.034300
C1301	C130	0.152500	0.213610	0.003400
H1011	H101	0.203100	0.232000	0.968800
H1021	H102	0.109700	0.187000	0.967700
C1311	C131	0.407400	0.210210	0.047900
H1031	H103	0.390200	0.246500	0.054700
C1321	C132	0.325900	0.171100	0.054900
C1331	C133	0.348300	0.116670	0.045600
C1341	C134	0.457100	0.102910	0.027900
H1041	H104	0.473900	0.066600	0.021400
C1351	C135	0.541800	0.140550	0.019400
C1361	C136	0.515000	0.195080	0.030800
C1371	C137	0.254400	0.075380	0.048800
H1051	H105	0.207500	0.088400	0.091700
C1381	C138	0.176200	0.073460	0.964200
C1391	C139	0.214100	0.085600	0.888000
H1061	H106	0.290500	0.093600	0.886300
C1401	C140	0.138600	0.085900	0.811800
H1071	H107	0.165900	0.094300	0.760500
C1411	C141	0.026000	0.074100	0.812200
C1421	C142	0.944700	0.075700	0.728700
H1081	H108	0.986400	0.085400	0.682300
H1091	H109	0.910900	0.040800	0.718000
H1101	H110	0.886100	0.101900	0.733500
C1431	C143	0.989400	0.061400	0.888100
H1111	H111	0.913200	0.052600	0.889400
C1441	C144	0.062500	0.061200	0.964000
H1121	H112	0.034500	0.052700	0.015000
O371	O37	0.435800	0.125830	0.614900
O381	O38	0.619900	0.123810	0.665800
O391	O39	0.589300	0.896420	0.571560
O401	O40	0.664800	0.851290	0.684900
O411	O41	0.769900	0.296030	0.011300
O421	O42	0.670500	0.368270	0.034200
O431	O43	0.016400	0.280510	0.973670
O441	O44	0.060600	0.258410	0.110000
O451	O45	0.562400	0.126220	0.830850
O461	O46	0.653400	0.938530	0.785610
O471	O47	0.217800	0.187210	0.072450
O481	O48	0.601300	0.231000	0.023950
