data_ULAQAB_clean_PM
_symmetry_space_group_name_H-M	'P1'
_cell_length_a	11.804000
_cell_length_b	24.810000
_cell_length_c	15.672000
_cell_angle_alpha	90.000000
_cell_angle_beta	96.269000
_cell_angle_gamma	90.000000
_symmetry_Int_Tables_number 1

loop_
_symmetry_equiv_pos_as_xyz
'x,y,z'

loop_
_atom_site_label
_atom_site_type_symbol
_atom_site_fract_x
_atom_site_fract_y
_atom_site_fract_z
Zn11	Zn1	0.087140	0.333140	0.992980
C11	C1	0.987800	0.374290	0.827900
C21	C2	0.023500	0.373450	0.739400
H11	H1	0.072900	0.404200	0.733500
H21	H2	0.068600	0.341200	0.733600
C31	C3	0.879700	0.609190	0.848900
C41	C4	0.899000	0.558660	0.799700
H31	H3	0.980200	0.552900	0.799300
H41	H4	0.868100	0.528100	0.828100
C51	C5	0.850500	0.516290	0.666000
C61	C6	0.896600	0.468270	0.696800
H51	H5	0.930000	0.465800	0.753200
C71	C7	0.893200	0.423700	0.643500
C81	C8	0.843500	0.426110	0.559660
C91	C9	0.798600	0.475680	0.530580
H61	H6	0.765300	0.478300	0.474200
C101	C10	0.801600	0.521230	0.582220
C111	C11	0.754300	0.575050	0.550340
H71	H7	0.707100	0.588100	0.593700
C121	C12	0.677500	0.573170	0.466300
C131	C13	0.563600	0.560490	0.466100
H81	H8	0.535800	0.551400	0.517500
C141	C14	0.490000	0.560940	0.391400
H91	H9	0.413800	0.552200	0.393500
C151	C15	0.527200	0.574010	0.314000
C161	C16	0.640600	0.585600	0.314600
H101	H10	0.668700	0.593800	0.263000
C171	C17	0.714100	0.585470	0.388700
H111	H11	0.790500	0.593900	0.386200
C181	C18	0.446600	0.575400	0.232200
H121	H12	0.371300	0.565900	0.244600
H131	H13	0.471800	0.550300	0.191800
H141	H14	0.445500	0.611100	0.208300
C191	C19	0.573300	0.753220	0.534200
C201	C20	0.181600	0.818150	0.522100
C211	C21	0.654700	0.713310	0.502600
H151	H15	0.612400	0.686900	0.466300
H161	H16	0.706200	0.731800	0.468300
C221	C22	0.077400	0.784720	0.531300
H171	H17	0.051300	0.791400	0.586900
H181	H18	0.016800	0.794900	0.487400
C231	C23	0.015300	0.694150	0.529900
C241	C24	0.908000	0.709460	0.547200
H191	H19	0.890900	0.745700	0.554000
C251	C25	0.825600	0.670380	0.554300
C261	C26	0.848600	0.616470	0.546040
C271	C27	0.957300	0.602580	0.527610
H201	H20	0.973800	0.566300	0.520800
C281	C28	0.041900	0.639780	0.518880
C291	C29	0.160100	0.624900	0.495800
C301	C30	0.247400	0.620090	0.573300
C311	C31	0.228000	0.592170	0.646500
H211	H21	0.155200	0.579600	0.652700
C321	C32	0.315000	0.582800	0.710000
H221	H22	0.300100	0.563300	0.758200
C331	C33	0.422900	0.601300	0.704600
C341	C34	0.441700	0.630880	0.634400
H231	H23	0.513800	0.645100	0.630100
C351	C35	0.355100	0.640140	0.569300
H241	H24	0.370100	0.660400	0.521800
C361	C36	0.519400	0.588200	0.774000
H251	H25	0.588600	0.604600	0.759800
H261	H26	0.529300	0.549900	0.777800
H271	H27	0.501200	0.601900	0.828100
O11	O1	0.073500	0.371960	0.884740
O21	O2	0.888500	0.378490	0.839930
O31	O3	0.916100	0.605040	0.928760
O41	O4	0.835200	0.648790	0.815990
O51	O5	0.936300	0.374610	0.671070
O61	O6	0.847800	0.561670	0.715880
O71	O7	0.562100	0.758370	0.610280
O81	O8	0.518300	0.779910	0.473640
O91	O9	0.168500	0.867330	0.527900
O101	O10	0.269900	0.794850	0.508470
O111	O11	0.718410	0.686790	0.572160
O121	O12	0.102160	0.729720	0.523340
Zn21	Zn2	0.412860	0.833140	0.507020
C371	C37	0.512200	0.874290	0.672100
C381	C38	0.476500	0.873450	0.760600
H281	H28	0.427100	0.904200	0.766500
H291	H29	0.431400	0.841200	0.766400
C391	C39	0.620300	0.109190	0.651100
C401	C40	0.601000	0.058660	0.700300
H301	H30	0.519800	0.052900	0.700700
H311	H31	0.631900	0.028100	0.671900
C411	C41	0.649500	0.016290	0.834000
C421	C42	0.603400	0.968270	0.803200
H321	H32	0.570000	0.965800	0.746800
C431	C43	0.606800	0.923700	0.856500
C441	C44	0.656500	0.926110	0.940340
C451	C45	0.701400	0.975680	0.969420
H331	H33	0.734700	0.978300	0.025800
C461	C46	0.698400	0.021230	0.917780
C471	C47	0.745700	0.075050	0.949660
H341	H34	0.792900	0.088100	0.906300
C481	C48	0.822500	0.073170	0.033700
C491	C49	0.936400	0.060490	0.033900
H351	H35	0.964200	0.051400	0.982500
C501	C50	0.010000	0.060940	0.108600
H361	H36	0.086200	0.052200	0.106500
C511	C51	0.972800	0.074010	0.186000
C521	C52	0.859400	0.085600	0.185400
H371	H37	0.831300	0.093800	0.237000
C531	C53	0.785900	0.085470	0.111300
H381	H38	0.709500	0.093900	0.113800
C541	C54	0.053400	0.075400	0.267800
H391	H39	0.128700	0.065900	0.255400
H401	H40	0.028200	0.050300	0.308200
H411	H41	0.054500	0.111100	0.291700
C551	C55	0.926700	0.253220	0.965800
C561	C56	0.318400	0.318150	0.977900
C571	C57	0.845300	0.213310	0.997400
H421	H42	0.887600	0.186900	0.033700
H431	H43	0.793800	0.231800	0.031700
C581	C58	0.422600	0.284720	0.968700
H441	H44	0.448700	0.291400	0.913100
H451	H45	0.483200	0.294900	0.012600
C591	C59	0.484700	0.194150	0.970100
C601	C60	0.592000	0.209460	0.952800
H461	H46	0.609100	0.245700	0.946000
C611	C61	0.674400	0.170380	0.945700
C621	C62	0.651400	0.116470	0.953960
C631	C63	0.542700	0.102580	0.972390
H471	H47	0.526200	0.066300	0.979200
C641	C64	0.458100	0.139780	0.981120
C651	C65	0.339900	0.124900	0.004200
C661	C66	0.252600	0.120090	0.926700
C671	C67	0.272000	0.092170	0.853500
H481	H48	0.344800	0.079600	0.847300
C681	C68	0.185000	0.082800	0.790000
H491	H49	0.199900	0.063300	0.741800
C691	C69	0.077100	0.101300	0.795400
C701	C70	0.058300	0.130880	0.865600
H501	H50	0.986200	0.145100	0.869900
C711	C71	0.144900	0.140140	0.930700
H511	H51	0.129900	0.160400	0.978200
C721	C72	0.980600	0.088200	0.726000
H521	H52	0.911400	0.104600	0.740200
H531	H53	0.970700	0.049900	0.722200
H541	H54	0.998800	0.101900	0.671900
O131	O13	0.426500	0.871960	0.615260
O141	O14	0.611500	0.878490	0.660070
O151	O15	0.583900	0.105040	0.571240
O161	O16	0.664800	0.148790	0.684010
O171	O17	0.563700	0.874610	0.828930
O181	O18	0.652200	0.061670	0.784120
O191	O19	0.937900	0.258370	0.889720
O201	O20	0.981700	0.279910	0.026360
O211	O21	0.331500	0.367330	0.972100
O221	O22	0.230100	0.294850	0.991530
O231	O23	0.781590	0.186790	0.927840
O241	O24	0.397840	0.229720	0.976660
Zn31	Zn3	0.912860	0.666860	0.007020
C731	C73	0.012200	0.625710	0.172100
C741	C74	0.976500	0.626550	0.260600
H551	H55	0.927100	0.595800	0.266500
H561	H56	0.931400	0.658800	0.266400
C751	C75	0.120300	0.390810	0.151100
C761	C76	0.101000	0.441340	0.200300
H571	H57	0.019800	0.447100	0.200700
H581	H58	0.131900	0.471900	0.171900
C771	C77	0.149500	0.483710	0.334000
C781	C78	0.103400	0.531730	0.303200
H591	H59	0.070000	0.534200	0.246800
C791	C79	0.106800	0.576300	0.356500
C801	C80	0.156500	0.573890	0.440340
C811	C81	0.201400	0.524320	0.469420
H601	H60	0.234700	0.521700	0.525800
C821	C82	0.198400	0.478770	0.417780
C831	C83	0.245700	0.424950	0.449660
H611	H61	0.292900	0.411900	0.406300
C841	C84	0.322500	0.426830	0.533700
C851	C85	0.436400	0.439510	0.533900
H621	H62	0.464200	0.448600	0.482500
C861	C86	0.510000	0.439060	0.608600
H631	H63	0.586200	0.447800	0.606500
C871	C87	0.472800	0.425990	0.686000
C881	C88	0.359400	0.414400	0.685400
H641	H64	0.331300	0.406200	0.737000
C891	C89	0.285900	0.414530	0.611300
H651	H65	0.209500	0.406100	0.613800
C901	C90	0.553400	0.424600	0.767800
H661	H66	0.628700	0.434100	0.755400
H671	H67	0.528200	0.449700	0.808200
H681	H68	0.554500	0.388900	0.791700
C911	C91	0.426700	0.246780	0.465800
C921	C92	0.818400	0.181850	0.477900
C931	C93	0.345300	0.286690	0.497400
H691	H69	0.387600	0.313100	0.533700
H701	H70	0.293800	0.268200	0.531700
C941	C94	0.922600	0.215280	0.468700
H711	H71	0.948700	0.208600	0.413100
H721	H72	0.983200	0.205100	0.512600
C951	C95	0.984700	0.305850	0.470100
C961	C96	0.092000	0.290540	0.452800
H731	H73	0.109100	0.254300	0.446000
C971	C97	0.174400	0.329620	0.445700
C981	C98	0.151400	0.383530	0.453960
C991	C99	0.042700	0.397420	0.472390
H741	H74	0.026200	0.433700	0.479200
C1001	C100	0.958100	0.360220	0.481120
C1011	C101	0.839900	0.375100	0.504200
C1021	C102	0.752600	0.379910	0.426700
C1031	C103	0.772000	0.407830	0.353500
H751	H75	0.844800	0.420400	0.347300
C1041	C104	0.685000	0.417200	0.290000
H761	H76	0.699900	0.436700	0.241800
C1051	C105	0.577100	0.398700	0.295400
C1061	C106	0.558300	0.369120	0.365600
H771	H77	0.486200	0.354900	0.369900
C1071	C107	0.644900	0.359860	0.430700
H781	H78	0.629900	0.339600	0.478200
C1081	C108	0.480600	0.411800	0.226000
H791	H79	0.411400	0.395400	0.240200
H801	H80	0.470700	0.450100	0.222200
H811	H81	0.498800	0.398100	0.171900
O251	O25	0.926500	0.628040	0.115260
O261	O26	0.111500	0.621510	0.160070
O271	O27	0.083900	0.394960	0.071240
O281	O28	0.164800	0.351210	0.184010
O291	O29	0.063700	0.625390	0.328930
O301	O30	0.152200	0.438330	0.284120
O311	O31	0.437900	0.241630	0.389720
O321	O32	0.481700	0.220090	0.526360
O331	O33	0.831500	0.132670	0.472100
O341	O34	0.730100	0.205150	0.491530
O351	O35	0.281590	0.313210	0.427840
O361	O36	0.897840	0.270280	0.476660
Zn41	Zn4	0.587140	0.166860	0.492980
C1091	C109	0.487800	0.125710	0.327900
C1101	C110	0.523500	0.126550	0.239400
H821	H82	0.572900	0.095800	0.233500
H831	H83	0.568600	0.158800	0.233600
C1111	C111	0.379700	0.890810	0.348900
C1121	C112	0.399000	0.941340	0.299700
H841	H84	0.480200	0.947100	0.299300
H851	H85	0.368100	0.971900	0.328100
C1131	C113	0.350500	0.983710	0.166000
C1141	C114	0.396600	0.031730	0.196800
H861	H86	0.430000	0.034200	0.253200
C1151	C115	0.393200	0.076300	0.143500
C1161	C116	0.343500	0.073890	0.059660
C1171	C117	0.298600	0.024320	0.030580
H871	H87	0.265300	0.021700	0.974200
C1181	C118	0.301600	0.978770	0.082220
C1191	C119	0.254300	0.924950	0.050340
H881	H88	0.207100	0.911900	0.093700
C1201	C120	0.177500	0.926830	0.966300
C1211	C121	0.063600	0.939510	0.966100
H891	H89	0.035800	0.948600	0.017500
C1221	C122	0.990000	0.939060	0.891400
H901	H90	0.913800	0.947800	0.893500
C1231	C123	0.027200	0.925990	0.814000
C1241	C124	0.140600	0.914400	0.814600
H911	H91	0.168700	0.906200	0.763000
C1251	C125	0.214100	0.914530	0.888700
H921	H92	0.290500	0.906100	0.886200
C1261	C126	0.946600	0.924600	0.732200
H931	H93	0.871300	0.934100	0.744600
H941	H94	0.971800	0.949700	0.691800
H951	H95	0.945500	0.888900	0.708300
C1271	C127	0.073300	0.746780	0.034200
C1281	C128	0.681600	0.681850	0.022100
C1291	C129	0.154700	0.786690	0.002600
H961	H96	0.112400	0.813100	0.966300
H971	H97	0.206200	0.768200	0.968300
C1301	C130	0.577400	0.715280	0.031300
H981	H98	0.551300	0.708600	0.086900
H991	H99	0.516800	0.705100	0.987400
C1311	C131	0.515300	0.805850	0.029900
C1321	C132	0.408000	0.790540	0.047200
H1001	H100	0.390900	0.754300	0.054000
C1331	C133	0.325600	0.829620	0.054300
C1341	C134	0.348600	0.883530	0.046040
C1351	C135	0.457300	0.897420	0.027610
H1011	H101	0.473800	0.933700	0.020800
C1361	C136	0.541900	0.860220	0.018880
C1371	C137	0.660100	0.875100	0.995800
C1381	C138	0.747400	0.879910	0.073300
C1391	C139	0.728000	0.907830	0.146500
H1021	H102	0.655200	0.920400	0.152700
C1401	C140	0.815000	0.917200	0.210000
H1031	H103	0.800100	0.936700	0.258200
C1411	C141	0.922900	0.898700	0.204600
C1421	C142	0.941700	0.869120	0.134400
H1041	H104	0.013800	0.854900	0.130100
C1431	C143	0.855100	0.859860	0.069300
H1051	H105	0.870100	0.839600	0.021800
C1441	C144	0.019400	0.911800	0.274000
H1061	H106	0.088600	0.895400	0.259800
H1071	H107	0.029300	0.950100	0.277800
H1081	H108	0.001200	0.898100	0.328100
O371	O37	0.573500	0.128040	0.384740
O381	O38	0.388500	0.121510	0.339930
O391	O39	0.416100	0.894960	0.428760
O401	O40	0.335200	0.851210	0.315990
O411	O41	0.436300	0.125390	0.171070
O421	O42	0.347800	0.938330	0.215880
O431	O43	0.062100	0.741630	0.110280
O441	O44	0.018300	0.720090	0.973640
O451	O45	0.668500	0.632670	0.027900
O461	O46	0.769900	0.705150	0.008470
O471	O47	0.218410	0.813210	0.072160
O481	O48	0.602160	0.770280	0.023340
