data_ULASAD_clean_PM
_symmetry_space_group_name_H-M	'P1'
_cell_length_a	13.919000
_cell_length_b	17.896500
_cell_length_c	16.136100
_cell_angle_alpha	90.000000
_cell_angle_beta	98.619000
_cell_angle_gamma	90.000000
_symmetry_Int_Tables_number 1

loop_
_symmetry_equiv_pos_as_xyz
'x,y,z'

loop_
_atom_site_label
_atom_site_type_symbol
_atom_site_fract_x
_atom_site_fract_y
_atom_site_fract_z
C11	C1	0.994600	0.300500	0.236100
C21	C2	0.004600	0.500900	0.166600
C31	C3	0.994600	0.432300	0.308400
C41	C4	0.004500	0.368700	0.087800
C51	C5	0.139600	0.397000	0.222200
C61	C6	0.860500	0.402400	0.176100
C71	C7	0.782600	0.447400	0.444100
H11	H1	0.814900	0.411800	0.416500
C81	C8	0.684000	0.439600	0.441000
H21	H2	0.651500	0.399900	0.412100
C91	C9	0.633500	0.491100	0.481100
C101	C10	0.685700	0.549600	0.520700
H31	H3	0.654200	0.586800	0.546700
C111	C11	0.785300	0.552900	0.521600
H41	H4	0.819400	0.592200	0.550000
C121	C12	0.525900	0.481200	0.479200
H51	H5	0.495400	0.444200	0.444300
N11	N1	0.991400	0.242400	0.267800
N21	N2	0.007800	0.562600	0.151200
N31	N3	0.992500	0.449300	0.376000
N41	N4	0.007300	0.350800	0.019100
N51	N5	0.221900	0.396100	0.237400
N61	N6	0.777100	0.404500	0.166400
N71	N7	0.835200	0.502600	0.483900
Co11	Co1	0.998390	0.178270	0.386820
Cr11	Cr1	0.999740	0.399710	0.198470
C131	C13	0.005400	0.800500	0.263900
C141	C14	0.995400	0.000900	0.333400
C151	C15	0.005400	0.932300	0.191600
C161	C16	0.995500	0.868700	0.412200
C171	C17	0.860400	0.897000	0.277800
C181	C18	0.139500	0.902400	0.323900
C191	C19	0.217400	0.947400	0.055900
H61	H6	0.185100	0.911800	0.083500
C201	C20	0.316000	0.939600	0.059000
H71	H7	0.348500	0.899900	0.087900
C211	C21	0.366500	0.991100	0.018900
C221	C22	0.314300	0.049600	0.979300
H81	H8	0.345800	0.086800	0.953300
C231	C23	0.214700	0.052900	0.978400
H91	H9	0.180600	0.092200	0.950000
C241	C24	0.474100	0.981200	0.020800
H101	H10	0.504600	0.944200	0.055700
N81	N8	0.008600	0.742400	0.232200
N91	N9	0.992200	0.062600	0.348800
N101	N10	0.007500	0.949300	0.124000
N111	N11	0.992700	0.850800	0.480900
N121	N12	0.778100	0.896100	0.262600
N131	N13	0.222900	0.904500	0.333600
N141	N14	0.164800	0.002600	0.016100
Co21	Co2	0.001610	0.678270	0.113180
Cr21	Cr2	0.000260	0.899710	0.301530
C251	C25	0.005400	0.699500	0.763900
C261	C26	0.995400	0.499100	0.833400
C271	C27	0.005400	0.567700	0.691600
C281	C28	0.995500	0.631300	0.912200
C291	C29	0.860400	0.603000	0.777800
C301	C30	0.139500	0.597600	0.823900
C311	C31	0.217400	0.552600	0.555900
H111	H11	0.185100	0.588200	0.583500
C321	C32	0.316000	0.560400	0.559000
H121	H12	0.348500	0.600100	0.587900
C331	C33	0.366500	0.508900	0.518900
C341	C34	0.314300	0.450400	0.479300
H131	H13	0.345800	0.413200	0.453300
C351	C35	0.214700	0.447100	0.478400
H141	H14	0.180600	0.407800	0.450000
C361	C36	0.474100	0.518800	0.520800
H151	H15	0.504600	0.555800	0.555700
N151	N15	0.008600	0.757600	0.732200
N161	N16	0.992200	0.437400	0.848800
N171	N17	0.007500	0.550700	0.624000
N181	N18	0.992700	0.649200	0.980900
N191	N19	0.778100	0.603900	0.762600
N201	N20	0.222900	0.595500	0.833600
N211	N21	0.164800	0.497400	0.516100
Co31	Co3	0.001610	0.821730	0.613180
Cr31	Cr3	0.000260	0.600290	0.801530
C371	C37	0.994600	0.199500	0.736100
C381	C38	0.004600	0.999100	0.666600
C391	C39	0.994600	0.067700	0.808400
C401	C40	0.004500	0.131300	0.587800
C411	C41	0.139600	0.103000	0.722200
C421	C42	0.860500	0.097600	0.676100
C431	C43	0.782600	0.052600	0.944100
H161	H16	0.814900	0.088200	0.916500
C441	C44	0.684000	0.060400	0.941000
H171	H17	0.651500	0.100100	0.912100
C451	C45	0.633500	0.008900	0.981100
C461	C46	0.685700	0.950400	0.020700
H181	H18	0.654200	0.913200	0.046700
C471	C47	0.785300	0.947100	0.021600
H191	H19	0.819400	0.907800	0.050000
C481	C48	0.525900	0.018800	0.979200
H201	H20	0.495400	0.055800	0.944300
N221	N22	0.991400	0.257600	0.767800
N231	N23	0.007800	0.937400	0.651200
N241	N24	0.992500	0.050700	0.876000
N251	N25	0.007300	0.149200	0.519100
N261	N26	0.221900	0.103900	0.737400
N271	N27	0.777100	0.095500	0.666400
N281	N28	0.835200	0.997400	0.983900
Co41	Co4	0.998390	0.321730	0.886820
Cr41	Cr4	0.999740	0.100290	0.698470
Co51	Co5	0.000000	0.500000	0.500000
Co61	Co6	0.000000	0.000000	0.000000
