data_ULOGIL_clean_PM
_symmetry_space_group_name_H-M	'P1'
_cell_length_a	7.681900
_cell_length_b	8.871500
_cell_length_c	10.320500
_cell_angle_alpha	105.852000
_cell_angle_beta	93.055000
_cell_angle_gamma	105.705000
_symmetry_Int_Tables_number 1

loop_
_symmetry_equiv_pos_as_xyz
'x,y,z'

loop_
_atom_site_label
_atom_site_type_symbol
_atom_site_fract_x
_atom_site_fract_y
_atom_site_fract_z
Cd11	Cd1	0.840920	0.615980	0.667920
Cd21	Cd2	0.159080	0.384020	0.332080
Cd31	Cd3	0.500000	0.000000	0.500000
H11	H1	0.125200	0.424700	0.864500
H21	H2	0.530500	0.776900	0.138800
H31	H3	0.634900	0.890100	0.967200
H41	H4	0.874800	0.575300	0.135500
H51	H5	0.469500	0.223100	0.861200
H61	H6	0.365100	0.109900	0.032800
C11	C1	0.444200	0.722300	0.812400
C21	C2	0.290600	0.585600	0.782700
C31	C3	0.229900	0.517900	0.885000
C41	C4	0.321700	0.586000	0.017000
C51	C5	0.470900	0.727000	0.047900
C61	C6	0.532600	0.794600	0.946000
C71	C7	0.515400	0.800000	0.704900
C81	C8	0.194100	0.502100	0.640200
C91	C9	0.262200	0.505300	0.123700
C101	C10	0.555800	0.277700	0.187600
C111	C11	0.709400	0.414400	0.217300
C121	C12	0.770100	0.482100	0.115000
C131	C13	0.678300	0.414000	0.983000
C141	C14	0.529100	0.273000	0.952100
C151	C15	0.467400	0.205400	0.054000
C161	C16	0.484600	0.200000	0.295100
C171	C17	0.805900	0.497900	0.359800
C181	C18	0.737800	0.494700	0.876300
O11	O1	0.667200	0.794100	0.670560
O21	O2	0.416800	0.872600	0.659470
O31	O3	0.292600	0.496200	0.546440
O41	O4	0.023100	0.440000	0.623020
O51	O5	0.130700	0.376200	0.095330
O61	O6	0.346200	0.569500	0.244160
O71	O7	0.332800	0.205900	0.329440
O81	O8	0.583200	0.127400	0.340530
O91	O9	0.707400	0.503800	0.453560
O101	O10	0.976900	0.560000	0.376980
O111	O11	0.869300	0.623800	0.904670
O121	O12	0.653800	0.430500	0.755840
