data_ULOKAJ_clean_PM
_symmetry_space_group_name_H-M	'P1'
_cell_length_a	35.265400
_cell_length_b	15.112400
_cell_length_c	30.914000
_cell_angle_alpha	90.000000
_cell_angle_beta	102.128000
_cell_angle_gamma	90.000000
_symmetry_Int_Tables_number 1

loop_
_symmetry_equiv_pos_as_xyz
'x,y,z'

loop_
_atom_site_label
_atom_site_type_symbol
_atom_site_fract_x
_atom_site_fract_y
_atom_site_fract_z
I11	I1	0.739880	0.226340	0.308320
I21	I2	0.525790	0.648000	0.636680
I31	I3	0.633490	0.174960	0.204990
I41	I4	0.615450	0.737780	0.561520
I51	I5	0.896970	0.728780	0.902580
I61	I6	0.854880	0.585850	0.010480
Zn11	Zn1	0.579670	0.620160	0.595110
Zn21	Zn2	0.677410	0.141210	0.280010
Zn31	Zn3	0.875240	0.589390	0.936490
N11	N1	0.688620	0.993000	0.780400
N21	N2	0.832370	0.528400	0.890650
N31	N3	0.643140	0.159200	0.326000
N41	N4	0.682220	0.317600	0.748300
N51	N5	0.419780	0.000200	0.439400
N61	N6	0.619680	0.548300	0.640720
N71	N7	0.536930	0.155500	0.410650
N81	N8	0.719420	0.444800	0.771430
N91	N9	0.573710	0.283200	0.438470
N101	N10	0.520770	0.237600	0.469970
N111	N11	0.564380	0.521700	0.548700
N121	N12	0.737090	0.307200	0.807000
C11	C1	0.665920	0.453600	0.708900
C21	C2	0.515270	0.172300	0.440420
C31	C3	0.809800	0.571300	0.857500
H11	H1	0.814200	0.631200	0.853800
C41	C4	0.690060	0.402500	0.745200
C51	C5	0.549420	0.292900	0.466360
C61	C6	0.593220	0.194100	0.382000
C71	C7	0.773530	0.440300	0.833300
C81	C8	0.566400	0.212000	0.412070
C91	C9	0.653800	0.212000	0.361000
H21	H2	0.678500	0.236700	0.366400
C101	C10	0.554430	0.373400	0.494670
C111	C11	0.672400	0.542600	0.701900
H31	H3	0.692400	0.572400	0.720500
C121	C12	0.482330	0.112200	0.440500
C131	C13	0.797600	0.395700	0.867200
H41	H4	0.794600	0.335300	0.871100
C141	C14	0.707030	0.272600	0.778700
C151	C15	0.529070	0.391200	0.522300
H51	H5	0.508400	0.353500	0.523100
C161	C16	0.437900	0.038400	0.476600
H61	H6	0.429400	0.026200	0.502500
C171	C17	0.727700	0.119500	0.805200
H71	H7	0.750400	0.142300	0.822600
C181	C18	0.535140	0.466100	0.548700
H81	H8	0.518100	0.478000	0.567100
C191	C19	0.607700	0.123000	0.319000
H91	H9	0.600100	0.086100	0.294600
C201	C20	0.741550	0.394400	0.802200
C211	C21	0.700700	0.175200	0.779800
C221	C22	0.780200	0.530300	0.828300
H101	H10	0.764700	0.562300	0.805400
C231	C23	0.582200	0.137700	0.346100
H111	H11	0.558000	0.110500	0.340600
C241	C24	0.661900	0.047700	0.756300
H121	H12	0.639200	0.023600	0.739700
C251	C25	0.649100	0.586600	0.667400
H131	H13	0.654300	0.645700	0.662600
C261	C26	0.826300	0.441800	0.895000
H141	H14	0.842200	0.411500	0.918100
C271	C27	0.667300	0.137800	0.755500
H151	H15	0.648300	0.173600	0.738500
C281	C28	0.583700	0.431700	0.493400
H161	H16	0.600600	0.422000	0.474500
C291	C29	0.588100	0.505600	0.520600
H171	H17	0.608100	0.545200	0.519500
C301	C30	0.629700	0.231600	0.389600
H181	H18	0.637900	0.269300	0.413600
C311	C31	0.431800	0.018300	0.401900
H191	H19	0.419000	0.992100	0.375600
C321	C32	0.468700	0.095100	0.478700
H201	H20	0.480200	0.121700	0.505300
C331	C33	0.634900	0.414000	0.681600
H211	H21	0.628800	0.355100	0.685700
C341	C34	0.612900	0.463300	0.647900
H221	H22	0.592200	0.435700	0.629100
C351	C35	0.720500	0.028800	0.804300
H231	H23	0.738900	0.991800	0.821300
C361	C36	0.462500	0.074200	0.401000
H241	H24	0.469800	0.086500	0.374500
I71	I7	0.239880	0.726340	0.308320
I81	I8	0.025790	0.148000	0.636680
I91	I9	0.133490	0.674960	0.204990
I101	I10	0.115450	0.237780	0.561520
I111	I11	0.396970	0.228780	0.902580
I121	I12	0.354880	0.085850	0.010480
Zn41	Zn4	0.079670	0.120160	0.595110
Zn51	Zn5	0.177410	0.641210	0.280010
Zn61	Zn6	0.375240	0.089390	0.936490
N131	N13	0.188620	0.493000	0.780400
N141	N14	0.332370	0.028400	0.890650
N151	N15	0.143140	0.659200	0.326000
N161	N16	0.182220	0.817600	0.748300
N171	N17	0.919780	0.500200	0.439400
N181	N18	0.119680	0.048300	0.640720
N191	N19	0.036930	0.655500	0.410650
N201	N20	0.219420	0.944800	0.771430
N211	N21	0.073710	0.783200	0.438470
N221	N22	0.020770	0.737600	0.469970
N231	N23	0.064380	0.021700	0.548700
N241	N24	0.237090	0.807200	0.807000
C371	C37	0.165920	0.953600	0.708900
C381	C38	0.015270	0.672300	0.440420
C391	C39	0.309800	0.071300	0.857500
H251	H25	0.314200	0.131200	0.853800
C401	C40	0.190060	0.902500	0.745200
C411	C41	0.049420	0.792900	0.466360
C421	C42	0.093220	0.694100	0.382000
C431	C43	0.273530	0.940300	0.833300
C441	C44	0.066400	0.712000	0.412070
C451	C45	0.153800	0.712000	0.361000
H261	H26	0.178500	0.736700	0.366400
C461	C46	0.054430	0.873400	0.494670
C471	C47	0.172400	0.042600	0.701900
H271	H27	0.192400	0.072400	0.720500
C481	C48	0.982330	0.612200	0.440500
C491	C49	0.297600	0.895700	0.867200
H281	H28	0.294600	0.835300	0.871100
C501	C50	0.207030	0.772600	0.778700
C511	C51	0.029070	0.891200	0.522300
H291	H29	0.008400	0.853500	0.523100
C521	C52	0.937900	0.538400	0.476600
H301	H30	0.929400	0.526200	0.502500
C531	C53	0.227700	0.619500	0.805200
H311	H31	0.250400	0.642300	0.822600
C541	C54	0.035140	0.966100	0.548700
H321	H32	0.018100	0.978000	0.567100
C551	C55	0.107700	0.623000	0.319000
H331	H33	0.100100	0.586100	0.294600
C561	C56	0.241550	0.894400	0.802200
C571	C57	0.200700	0.675200	0.779800
C581	C58	0.280200	0.030300	0.828300
H341	H34	0.264700	0.062300	0.805400
C591	C59	0.082200	0.637700	0.346100
H351	H35	0.058000	0.610500	0.340600
C601	C60	0.161900	0.547700	0.756300
H361	H36	0.139200	0.523600	0.739700
C611	C61	0.149100	0.086600	0.667400
H371	H37	0.154300	0.145700	0.662600
C621	C62	0.326300	0.941800	0.895000
H381	H38	0.342200	0.911500	0.918100
C631	C63	0.167300	0.637800	0.755500
H391	H39	0.148300	0.673600	0.738500
C641	C64	0.083700	0.931700	0.493400
H401	H40	0.100600	0.922000	0.474500
C651	C65	0.088100	0.005600	0.520600
H411	H41	0.108100	0.045200	0.519500
C661	C66	0.129700	0.731600	0.389600
H421	H42	0.137900	0.769300	0.413600
C671	C67	0.931800	0.518300	0.401900
H431	H43	0.919000	0.492100	0.375600
C681	C68	0.968700	0.595100	0.478700
H441	H44	0.980200	0.621700	0.505300
C691	C69	0.134900	0.914000	0.681600
H451	H45	0.128800	0.855100	0.685700
C701	C70	0.112900	0.963300	0.647900
H461	H46	0.092200	0.935700	0.629100
C711	C71	0.220500	0.528800	0.804300
H471	H47	0.238900	0.491800	0.821300
C721	C72	0.962500	0.574200	0.401000
H481	H48	0.969800	0.586500	0.374500
I131	I13	0.739880	0.773660	0.808320
I141	I14	0.525790	0.352000	0.136680
I151	I15	0.633490	0.825040	0.704990
I161	I16	0.615450	0.262220	0.061520
I171	I17	0.896970	0.271220	0.402580
I181	I18	0.854880	0.414150	0.510480
Zn71	Zn7	0.579670	0.379840	0.095110
Zn81	Zn8	0.677410	0.858790	0.780010
Zn91	Zn9	0.875240	0.410610	0.436490
N251	N25	0.688620	0.007000	0.280400
N261	N26	0.832370	0.471600	0.390650
N271	N27	0.643140	0.840800	0.826000
N281	N28	0.682220	0.682400	0.248300
N291	N29	0.419780	0.999800	0.939400
N301	N30	0.619680	0.451700	0.140720
N311	N31	0.536930	0.844500	0.910650
N321	N32	0.719420	0.555200	0.271430
N331	N33	0.573710	0.716800	0.938470
N341	N34	0.520770	0.762400	0.969970
N351	N35	0.564380	0.478300	0.048700
N361	N36	0.737090	0.692800	0.307000
C731	C73	0.665920	0.546400	0.208900
C741	C74	0.515270	0.827700	0.940420
C751	C75	0.809800	0.428700	0.357500
H491	H49	0.814200	0.368800	0.353800
C761	C76	0.690060	0.597500	0.245200
C771	C77	0.549420	0.707100	0.966360
C781	C78	0.593220	0.805900	0.882000
C791	C79	0.773530	0.559700	0.333300
C801	C80	0.566400	0.788000	0.912070
C811	C81	0.653800	0.788000	0.861000
H501	H50	0.678500	0.763300	0.866400
C821	C82	0.554430	0.626600	0.994670
C831	C83	0.672400	0.457400	0.201900
H511	H51	0.692400	0.427600	0.220500
C841	C84	0.482330	0.887800	0.940500
C851	C85	0.797600	0.604300	0.367200
H521	H52	0.794600	0.664700	0.371100
C861	C86	0.707030	0.727400	0.278700
C871	C87	0.529070	0.608800	0.022300
H531	H53	0.508400	0.646500	0.023100
C881	C88	0.437900	0.961600	0.976600
H541	H54	0.429400	0.973800	0.002500
C891	C89	0.727700	0.880500	0.305200
H551	H55	0.750400	0.857700	0.322600
C901	C90	0.535140	0.533900	0.048700
H561	H56	0.518100	0.522000	0.067100
C911	C91	0.607700	0.877000	0.819000
H571	H57	0.600100	0.913900	0.794600
C921	C92	0.741550	0.605600	0.302200
C931	C93	0.700700	0.824800	0.279800
C941	C94	0.780200	0.469700	0.328300
H581	H58	0.764700	0.437700	0.305400
C951	C95	0.582200	0.862300	0.846100
H591	H59	0.558000	0.889500	0.840600
C961	C96	0.661900	0.952300	0.256300
H601	H60	0.639200	0.976400	0.239700
C971	C97	0.649100	0.413400	0.167400
H611	H61	0.654300	0.354300	0.162600
C981	C98	0.826300	0.558200	0.395000
H621	H62	0.842200	0.588500	0.418100
C991	C99	0.667300	0.862200	0.255500
H631	H63	0.648300	0.826400	0.238500
C1001	C100	0.583700	0.568300	0.993400
H641	H64	0.600600	0.578000	0.974500
C1011	C101	0.588100	0.494400	0.020600
H651	H65	0.608100	0.454800	0.019500
C1021	C102	0.629700	0.768400	0.889600
H661	H66	0.637900	0.730700	0.913600
C1031	C103	0.431800	0.981700	0.901900
H671	H67	0.419000	0.007900	0.875600
C1041	C104	0.468700	0.904900	0.978700
H681	H68	0.480200	0.878300	0.005300
C1051	C105	0.634900	0.586000	0.181600
H691	H69	0.628800	0.644900	0.185700
C1061	C106	0.612900	0.536700	0.147900
H701	H70	0.592200	0.564300	0.129100
C1071	C107	0.720500	0.971200	0.304300
H711	H71	0.738900	0.008200	0.321300
C1081	C108	0.462500	0.925800	0.901000
H721	H72	0.469800	0.913500	0.874500
I191	I19	0.239880	0.273660	0.808320
I201	I20	0.025790	0.852000	0.136680
I211	I21	0.133490	0.325040	0.704990
I221	I22	0.115450	0.762220	0.061520
I231	I23	0.396970	0.771220	0.402580
I241	I24	0.354880	0.914150	0.510480
Zn101	Zn10	0.079670	0.879840	0.095110
Zn111	Zn11	0.177410	0.358790	0.780010
Zn121	Zn12	0.375240	0.910610	0.436490
N371	N37	0.188620	0.507000	0.280400
N381	N38	0.332370	0.971600	0.390650
N391	N39	0.143140	0.340800	0.826000
N401	N40	0.182220	0.182400	0.248300
N411	N41	0.919780	0.499800	0.939400
N421	N42	0.119680	0.951700	0.140720
N431	N43	0.036930	0.344500	0.910650
N441	N44	0.219420	0.055200	0.271430
N451	N45	0.073710	0.216800	0.938470
N461	N46	0.020770	0.262400	0.969970
N471	N47	0.064380	0.978300	0.048700
N481	N48	0.237090	0.192800	0.307000
C1091	C109	0.165920	0.046400	0.208900
C1101	C110	0.015270	0.327700	0.940420
C1111	C111	0.309800	0.928700	0.357500
H731	H73	0.314200	0.868800	0.353800
C1121	C112	0.190060	0.097500	0.245200
C1131	C113	0.049420	0.207100	0.966360
C1141	C114	0.093220	0.305900	0.882000
C1151	C115	0.273530	0.059700	0.333300
C1161	C116	0.066400	0.288000	0.912070
C1171	C117	0.153800	0.288000	0.861000
H741	H74	0.178500	0.263300	0.866400
C1181	C118	0.054430	0.126600	0.994670
C1191	C119	0.172400	0.957400	0.201900
H751	H75	0.192400	0.927600	0.220500
C1201	C120	0.982330	0.387800	0.940500
C1211	C121	0.297600	0.104300	0.367200
H761	H76	0.294600	0.164700	0.371100
C1221	C122	0.207030	0.227400	0.278700
C1231	C123	0.029070	0.108800	0.022300
H771	H77	0.008400	0.146500	0.023100
C1241	C124	0.937900	0.461600	0.976600
H781	H78	0.929400	0.473800	0.002500
C1251	C125	0.227700	0.380500	0.305200
H791	H79	0.250400	0.357700	0.322600
C1261	C126	0.035140	0.033900	0.048700
H801	H80	0.018100	0.022000	0.067100
C1271	C127	0.107700	0.377000	0.819000
H811	H81	0.100100	0.413900	0.794600
C1281	C128	0.241550	0.105600	0.302200
C1291	C129	0.200700	0.324800	0.279800
C1301	C130	0.280200	0.969700	0.328300
H821	H82	0.264700	0.937700	0.305400
C1311	C131	0.082200	0.362300	0.846100
H831	H83	0.058000	0.389500	0.840600
C1321	C132	0.161900	0.452300	0.256300
H841	H84	0.139200	0.476400	0.239700
C1331	C133	0.149100	0.913400	0.167400
H851	H85	0.154300	0.854300	0.162600
C1341	C134	0.326300	0.058200	0.395000
H861	H86	0.342200	0.088500	0.418100
C1351	C135	0.167300	0.362200	0.255500
H871	H87	0.148300	0.326400	0.238500
C1361	C136	0.083700	0.068300	0.993400
H881	H88	0.100600	0.078000	0.974500
C1371	C137	0.088100	0.994400	0.020600
H891	H89	0.108100	0.954800	0.019500
C1381	C138	0.129700	0.268400	0.889600
H901	H90	0.137900	0.230700	0.913600
C1391	C139	0.931800	0.481700	0.901900
H911	H91	0.919000	0.507900	0.875600
C1401	C140	0.968700	0.404900	0.978700
H921	H92	0.980200	0.378300	0.005300
C1411	C141	0.134900	0.086000	0.181600
H931	H93	0.128800	0.144900	0.185700
C1421	C142	0.112900	0.036700	0.147900
H941	H94	0.092200	0.064300	0.129100
C1431	C143	0.220500	0.471200	0.304300
H951	H95	0.238900	0.508200	0.321300
C1441	C144	0.962500	0.425800	0.901000
H961	H96	0.969800	0.413500	0.874500
I251	I25	0.260120	0.226340	0.191680
I261	I26	0.474210	0.648000	0.863320
I271	I27	0.366510	0.174960	0.295010
I281	I28	0.384550	0.737780	0.938480
I291	I29	0.103030	0.728780	0.597420
I301	I30	0.145120	0.585850	0.489520
Zn131	Zn13	0.420330	0.620160	0.904890
Zn141	Zn14	0.322590	0.141210	0.219990
Zn151	Zn15	0.124760	0.589390	0.563510
N491	N49	0.311380	0.993000	0.719600
N501	N50	0.167630	0.528400	0.609350
N511	N51	0.356860	0.159200	0.174000
N521	N52	0.317780	0.317600	0.751700
N531	N53	0.580220	0.000200	0.060600
N541	N54	0.380320	0.548300	0.859280
N551	N55	0.463070	0.155500	0.089350
N561	N56	0.280580	0.444800	0.728570
N571	N57	0.426290	0.283200	0.061530
N581	N58	0.479230	0.237600	0.030030
N591	N59	0.435620	0.521700	0.951300
N601	N60	0.262910	0.307200	0.693000
C1451	C145	0.334080	0.453600	0.791100
C1461	C146	0.484730	0.172300	0.059580
C1471	C147	0.190200	0.571300	0.642500
H971	H97	0.185800	0.631200	0.646200
C1481	C148	0.309940	0.402500	0.754800
C1491	C149	0.450580	0.292900	0.033640
C1501	C150	0.406780	0.194100	0.118000
C1511	C151	0.226470	0.440300	0.666700
C1521	C152	0.433600	0.212000	0.087930
C1531	C153	0.346200	0.212000	0.139000
H981	H98	0.321500	0.236700	0.133600
C1541	C154	0.445570	0.373400	0.005330
C1551	C155	0.327600	0.542600	0.798100
H991	H99	0.307600	0.572400	0.779500
C1561	C156	0.517670	0.112200	0.059500
C1571	C157	0.202400	0.395700	0.632800
H1001	H100	0.205400	0.335300	0.628900
C1581	C158	0.292970	0.272600	0.721300
C1591	C159	0.470930	0.391200	0.977700
H1011	H101	0.491600	0.353500	0.976900
C1601	C160	0.562100	0.038400	0.023400
H1021	H102	0.570600	0.026200	0.997500
C1611	C161	0.272300	0.119500	0.694800
H1031	H103	0.249600	0.142300	0.677400
C1621	C162	0.464860	0.466100	0.951300
H1041	H104	0.481900	0.478000	0.932900
C1631	C163	0.392300	0.123000	0.181000
H1051	H105	0.399900	0.086100	0.205400
C1641	C164	0.258450	0.394400	0.697800
C1651	C165	0.299300	0.175200	0.720200
C1661	C166	0.219800	0.530300	0.671700
H1061	H106	0.235300	0.562300	0.694600
C1671	C167	0.417800	0.137700	0.153900
H1071	H107	0.442000	0.110500	0.159400
C1681	C168	0.338100	0.047700	0.743700
H1081	H108	0.360800	0.023600	0.760300
C1691	C169	0.350900	0.586600	0.832600
H1091	H109	0.345700	0.645700	0.837400
C1701	C170	0.173700	0.441800	0.605000
H1101	H110	0.157800	0.411500	0.581900
C1711	C171	0.332700	0.137800	0.744500
H1111	H111	0.351700	0.173600	0.761500
C1721	C172	0.416300	0.431700	0.006600
H1121	H112	0.399400	0.422000	0.025500
C1731	C173	0.411900	0.505600	0.979400
H1131	H113	0.391900	0.545200	0.980500
C1741	C174	0.370300	0.231600	0.110400
H1141	H114	0.362100	0.269300	0.086400
C1751	C175	0.568200	0.018300	0.098100
H1151	H115	0.581000	0.992100	0.124400
C1761	C176	0.531300	0.095100	0.021300
H1161	H116	0.519800	0.121700	0.994700
C1771	C177	0.365100	0.414000	0.818400
H1171	H117	0.371200	0.355100	0.814300
C1781	C178	0.387100	0.463300	0.852100
H1181	H118	0.407800	0.435700	0.870900
C1791	C179	0.279500	0.028800	0.695700
H1191	H119	0.261100	0.991800	0.678700
C1801	C180	0.537500	0.074200	0.099000
H1201	H120	0.530200	0.086500	0.125500
I311	I31	0.760120	0.726340	0.191680
I321	I32	0.974210	0.148000	0.863320
I331	I33	0.866510	0.674960	0.295010
I341	I34	0.884550	0.237780	0.938480
I351	I35	0.603030	0.228780	0.597420
I361	I36	0.645120	0.085850	0.489520
Zn161	Zn16	0.920330	0.120160	0.904890
Zn171	Zn17	0.822590	0.641210	0.219990
Zn181	Zn18	0.624760	0.089390	0.563510
N611	N61	0.811380	0.493000	0.719600
N621	N62	0.667630	0.028400	0.609350
N631	N63	0.856860	0.659200	0.174000
N641	N64	0.817780	0.817600	0.751700
N651	N65	0.080220	0.500200	0.060600
N661	N66	0.880320	0.048300	0.859280
N671	N67	0.963070	0.655500	0.089350
N681	N68	0.780580	0.944800	0.728570
N691	N69	0.926290	0.783200	0.061530
N701	N70	0.979230	0.737600	0.030030
N711	N71	0.935620	0.021700	0.951300
N721	N72	0.762910	0.807200	0.693000
C1811	C181	0.834080	0.953600	0.791100
C1821	C182	0.984730	0.672300	0.059580
C1831	C183	0.690200	0.071300	0.642500
H1211	H121	0.685800	0.131200	0.646200
C1841	C184	0.809940	0.902500	0.754800
C1851	C185	0.950580	0.792900	0.033640
C1861	C186	0.906780	0.694100	0.118000
C1871	C187	0.726470	0.940300	0.666700
C1881	C188	0.933600	0.712000	0.087930
C1891	C189	0.846200	0.712000	0.139000
H1221	H122	0.821500	0.736700	0.133600
C1901	C190	0.945570	0.873400	0.005330
C1911	C191	0.827600	0.042600	0.798100
H1231	H123	0.807600	0.072400	0.779500
C1921	C192	0.017670	0.612200	0.059500
C1931	C193	0.702400	0.895700	0.632800
H1241	H124	0.705400	0.835300	0.628900
C1941	C194	0.792970	0.772600	0.721300
C1951	C195	0.970930	0.891200	0.977700
H1251	H125	0.991600	0.853500	0.976900
C1961	C196	0.062100	0.538400	0.023400
H1261	H126	0.070600	0.526200	0.997500
C1971	C197	0.772300	0.619500	0.694800
H1271	H127	0.749600	0.642300	0.677400
C1981	C198	0.964860	0.966100	0.951300
H1281	H128	0.981900	0.978000	0.932900
C1991	C199	0.892300	0.623000	0.181000
H1291	H129	0.899900	0.586100	0.205400
C2001	C200	0.758450	0.894400	0.697800
C2011	C201	0.799300	0.675200	0.720200
C2021	C202	0.719800	0.030300	0.671700
H1301	H130	0.735300	0.062300	0.694600
C2031	C203	0.917800	0.637700	0.153900
H1311	H131	0.942000	0.610500	0.159400
C2041	C204	0.838100	0.547700	0.743700
H1321	H132	0.860800	0.523600	0.760300
C2051	C205	0.850900	0.086600	0.832600
H1331	H133	0.845700	0.145700	0.837400
C2061	C206	0.673700	0.941800	0.605000
H1341	H134	0.657800	0.911500	0.581900
C2071	C207	0.832700	0.637800	0.744500
H1351	H135	0.851700	0.673600	0.761500
C2081	C208	0.916300	0.931700	0.006600
H1361	H136	0.899400	0.922000	0.025500
C2091	C209	0.911900	0.005600	0.979400
H1371	H137	0.891900	0.045200	0.980500
C2101	C210	0.870300	0.731600	0.110400
H1381	H138	0.862100	0.769300	0.086400
C2111	C211	0.068200	0.518300	0.098100
H1391	H139	0.081000	0.492100	0.124400
C2121	C212	0.031300	0.595100	0.021300
H1401	H140	0.019800	0.621700	0.994700
C2131	C213	0.865100	0.914000	0.818400
H1411	H141	0.871200	0.855100	0.814300
C2141	C214	0.887100	0.963300	0.852100
H1421	H142	0.907800	0.935700	0.870900
C2151	C215	0.779500	0.528800	0.695700
H1431	H143	0.761100	0.491800	0.678700
C2161	C216	0.037500	0.574200	0.099000
H1441	H144	0.030200	0.586500	0.125500
I371	I37	0.260120	0.773660	0.691680
I381	I38	0.474210	0.352000	0.363320
I391	I39	0.366510	0.825040	0.795010
I401	I40	0.384550	0.262220	0.438480
I411	I41	0.103030	0.271220	0.097420
I421	I42	0.145120	0.414150	0.989520
Zn191	Zn19	0.420330	0.379840	0.404890
Zn201	Zn20	0.322590	0.858790	0.719990
Zn211	Zn21	0.124760	0.410610	0.063510
N731	N73	0.311380	0.007000	0.219600
N741	N74	0.167630	0.471600	0.109350
N751	N75	0.356860	0.840800	0.674000
N761	N76	0.317780	0.682400	0.251700
N771	N77	0.580220	0.999800	0.560600
N781	N78	0.380320	0.451700	0.359280
N791	N79	0.463070	0.844500	0.589350
N801	N80	0.280580	0.555200	0.228570
N811	N81	0.426290	0.716800	0.561530
N821	N82	0.479230	0.762400	0.530030
N831	N83	0.435620	0.478300	0.451300
N841	N84	0.262910	0.692800	0.193000
C2171	C217	0.334080	0.546400	0.291100
C2181	C218	0.484730	0.827700	0.559580
C2191	C219	0.190200	0.428700	0.142500
H1451	H145	0.185800	0.368800	0.146200
C2201	C220	0.309940	0.597500	0.254800
C2211	C221	0.450580	0.707100	0.533640
C2221	C222	0.406780	0.805900	0.618000
C2231	C223	0.226470	0.559700	0.166700
C2241	C224	0.433600	0.788000	0.587930
C2251	C225	0.346200	0.788000	0.639000
H1461	H146	0.321500	0.763300	0.633600
C2261	C226	0.445570	0.626600	0.505330
C2271	C227	0.327600	0.457400	0.298100
H1471	H147	0.307600	0.427600	0.279500
C2281	C228	0.517670	0.887800	0.559500
C2291	C229	0.202400	0.604300	0.132800
H1481	H148	0.205400	0.664700	0.128900
C2301	C230	0.292970	0.727400	0.221300
C2311	C231	0.470930	0.608800	0.477700
H1491	H149	0.491600	0.646500	0.476900
C2321	C232	0.562100	0.961600	0.523400
H1501	H150	0.570600	0.973800	0.497500
C2331	C233	0.272300	0.880500	0.194800
H1511	H151	0.249600	0.857700	0.177400
C2341	C234	0.464860	0.533900	0.451300
H1521	H152	0.481900	0.522000	0.432900
C2351	C235	0.392300	0.877000	0.681000
H1531	H153	0.399900	0.913900	0.705400
C2361	C236	0.258450	0.605600	0.197800
C2371	C237	0.299300	0.824800	0.220200
C2381	C238	0.219800	0.469700	0.171700
H1541	H154	0.235300	0.437700	0.194600
C2391	C239	0.417800	0.862300	0.653900
H1551	H155	0.442000	0.889500	0.659400
C2401	C240	0.338100	0.952300	0.243700
H1561	H156	0.360800	0.976400	0.260300
C2411	C241	0.350900	0.413400	0.332600
H1571	H157	0.345700	0.354300	0.337400
C2421	C242	0.173700	0.558200	0.105000
H1581	H158	0.157800	0.588500	0.081900
C2431	C243	0.332700	0.862200	0.244500
H1591	H159	0.351700	0.826400	0.261500
C2441	C244	0.416300	0.568300	0.506600
H1601	H160	0.399400	0.578000	0.525500
C2451	C245	0.411900	0.494400	0.479400
H1611	H161	0.391900	0.454800	0.480500
C2461	C246	0.370300	0.768400	0.610400
H1621	H162	0.362100	0.730700	0.586400
C2471	C247	0.568200	0.981700	0.598100
H1631	H163	0.581000	0.007900	0.624400
C2481	C248	0.531300	0.904900	0.521300
H1641	H164	0.519800	0.878300	0.494700
C2491	C249	0.365100	0.586000	0.318400
H1651	H165	0.371200	0.644900	0.314300
C2501	C250	0.387100	0.536700	0.352100
H1661	H166	0.407800	0.564300	0.370900
C2511	C251	0.279500	0.971200	0.195700
H1671	H167	0.261100	0.008200	0.178700
C2521	C252	0.537500	0.925800	0.599000
H1681	H168	0.530200	0.913500	0.625500
I431	I43	0.760120	0.273660	0.691680
I441	I44	0.974210	0.852000	0.363320
I451	I45	0.866510	0.325040	0.795010
I461	I46	0.884550	0.762220	0.438480
I471	I47	0.603030	0.771220	0.097420
I481	I48	0.645120	0.914150	0.989520
Zn221	Zn22	0.920330	0.879840	0.404890
Zn231	Zn23	0.822590	0.358790	0.719990
Zn241	Zn24	0.624760	0.910610	0.063510
N851	N85	0.811380	0.507000	0.219600
N861	N86	0.667630	0.971600	0.109350
N871	N87	0.856860	0.340800	0.674000
N881	N88	0.817780	0.182400	0.251700
N891	N89	0.080220	0.499800	0.560600
N901	N90	0.880320	0.951700	0.359280
N911	N91	0.963070	0.344500	0.589350
N921	N92	0.780580	0.055200	0.228570
N931	N93	0.926290	0.216800	0.561530
N941	N94	0.979230	0.262400	0.530030
N951	N95	0.935620	0.978300	0.451300
N961	N96	0.762910	0.192800	0.193000
C2531	C253	0.834080	0.046400	0.291100
C2541	C254	0.984730	0.327700	0.559580
C2551	C255	0.690200	0.928700	0.142500
H1691	H169	0.685800	0.868800	0.146200
C2561	C256	0.809940	0.097500	0.254800
C2571	C257	0.950580	0.207100	0.533640
C2581	C258	0.906780	0.305900	0.618000
C2591	C259	0.726470	0.059700	0.166700
C2601	C260	0.933600	0.288000	0.587930
C2611	C261	0.846200	0.288000	0.639000
H1701	H170	0.821500	0.263300	0.633600
C2621	C262	0.945570	0.126600	0.505330
C2631	C263	0.827600	0.957400	0.298100
H1711	H171	0.807600	0.927600	0.279500
C2641	C264	0.017670	0.387800	0.559500
C2651	C265	0.702400	0.104300	0.132800
H1721	H172	0.705400	0.164700	0.128900
C2661	C266	0.792970	0.227400	0.221300
C2671	C267	0.970930	0.108800	0.477700
H1731	H173	0.991600	0.146500	0.476900
C2681	C268	0.062100	0.461600	0.523400
H1741	H174	0.070600	0.473800	0.497500
C2691	C269	0.772300	0.380500	0.194800
H1751	H175	0.749600	0.357700	0.177400
C2701	C270	0.964860	0.033900	0.451300
H1761	H176	0.981900	0.022000	0.432900
C2711	C271	0.892300	0.377000	0.681000
H1771	H177	0.899900	0.413900	0.705400
C2721	C272	0.758450	0.105600	0.197800
C2731	C273	0.799300	0.324800	0.220200
C2741	C274	0.719800	0.969700	0.171700
H1781	H178	0.735300	0.937700	0.194600
C2751	C275	0.917800	0.362300	0.653900
H1791	H179	0.942000	0.389500	0.659400
C2761	C276	0.838100	0.452300	0.243700
H1801	H180	0.860800	0.476400	0.260300
C2771	C277	0.850900	0.913400	0.332600
H1811	H181	0.845700	0.854300	0.337400
C2781	C278	0.673700	0.058200	0.105000
H1821	H182	0.657800	0.088500	0.081900
C2791	C279	0.832700	0.362200	0.244500
H1831	H183	0.851700	0.326400	0.261500
C2801	C280	0.916300	0.068300	0.506600
H1841	H184	0.899400	0.078000	0.525500
C2811	C281	0.911900	0.994400	0.479400
H1851	H185	0.891900	0.954800	0.480500
C2821	C282	0.870300	0.268400	0.610400
H1861	H186	0.862100	0.230700	0.586400
C2831	C283	0.068200	0.481700	0.598100
H1871	H187	0.081000	0.507900	0.624400
C2841	C284	0.031300	0.404900	0.521300
H1881	H188	0.019800	0.378300	0.494700
C2851	C285	0.865100	0.086000	0.318400
H1891	H189	0.871200	0.144900	0.314300
C2861	C286	0.887100	0.036700	0.352100
H1901	H190	0.907800	0.064300	0.370900
C2871	C287	0.779500	0.471200	0.195700
H1911	H191	0.761100	0.508200	0.178700
C2881	C288	0.037500	0.425800	0.599000
H1921	H192	0.030200	0.413500	0.625500
