data_ULOMAL_clean_PM
_symmetry_space_group_name_H-M	'P1'
_cell_length_a	35.283900
_cell_length_b	15.159200
_cell_length_c	30.690400
_cell_angle_alpha	90.000000
_cell_angle_beta	102.222000
_cell_angle_gamma	90.000000
_symmetry_Int_Tables_number 1

loop_
_symmetry_equiv_pos_as_xyz
'x,y,z'

loop_
_atom_site_label
_atom_site_type_symbol
_atom_site_fract_x
_atom_site_fract_y
_atom_site_fract_z
I11	I1	0.024000	0.353500	0.138010
I21	I2	0.742930	0.722340	0.313750
I31	I3	0.636090	0.676920	0.207660
I41	I4	0.113350	0.262320	0.062560
I51	I5	0.396770	0.270720	0.403040
I61	I6	0.354440	0.415610	0.510820
Zn11	Zn1	0.077910	0.380280	0.096080
Zn21	Zn2	0.679820	0.640560	0.283140
Zn31	Zn3	0.375680	0.410140	0.436970
N11	N1	0.562920	0.022100	0.548920
N21	N2	0.190170	0.006400	0.282500
N31	N3	0.420520	0.498600	0.440000
N41	N4	0.182220	0.683200	0.248400
N51	N5	0.333220	0.471700	0.390800
N61	N6	0.117880	0.452500	0.141300
N71	N7	0.520280	0.737000	0.470460
N81	N8	0.219360	0.555500	0.271800
N91	N9	0.644980	0.657900	0.328700
N101	N10	0.573490	0.782800	0.439760
N111	N11	0.537450	0.655100	0.411460
C11	C1	0.190110	0.598000	0.245700
N121	N12	0.238020	0.693000	0.307100
C21	C2	0.165160	0.547000	0.209500
C31	C3	0.242080	0.605800	0.302500
C41	C4	0.273990	0.560100	0.333500
C51	C5	0.548890	0.792900	0.466800
C61	C6	0.221600	0.969600	0.306000
H11	H1	0.240000	0.005700	0.323600
C71	C7	0.207840	0.727600	0.279000
C81	C8	0.566630	0.711300	0.413200
C91	C9	0.228600	0.880500	0.305800
H21	H2	0.251400	0.857600	0.322800
C101	C10	0.482310	0.611600	0.440800
C111	C11	0.553180	0.872700	0.495100
C121	C12	0.164000	0.953300	0.257600
H31	H3	0.141500	0.978300	0.240900
C131	C13	0.515250	0.671500	0.441100
C141	C14	0.533750	0.965400	0.549400
H41	H4	0.517000	0.976600	0.568300
C151	C15	0.172000	0.458900	0.202400
H51	H5	0.192700	0.429800	0.220500
C161	C16	0.593670	0.694000	0.383500
C171	C17	0.309600	0.429300	0.357500
H61	H6	0.313500	0.369300	0.354000
C181	C18	0.527700	0.891100	0.522800
H71	H7	0.506900	0.853800	0.523500
C191	C19	0.298600	0.604700	0.367000
H81	H8	0.296100	0.665200	0.370700
C201	C20	0.148000	0.414900	0.168400
H91	H9	0.153100	0.355800	0.164000
C211	C21	0.201400	0.825000	0.280500
C221	C22	0.655100	0.711400	0.363800
H101	H10	0.679700	0.736300	0.369600
C231	C23	0.438400	0.538000	0.477500
H111	H11	0.429900	0.526300	0.503600
C241	C24	0.630300	0.731300	0.391800
H121	H12	0.638100	0.769100	0.415900
C251	C25	0.111800	0.537300	0.148100
H131	H13	0.091000	0.565000	0.129500
C261	C26	0.586300	0.005900	0.521200
H141	H14	0.606000	0.045800	0.519900
C271	C27	0.582900	0.637800	0.346600
H151	H15	0.558500	0.611500	0.340200
C281	C28	0.327500	0.557100	0.395100
H161	H16	0.343800	0.587000	0.418200
C291	C29	0.609300	0.622500	0.320300
H171	H17	0.602000	0.586000	0.295500
C301	C30	0.582500	0.931800	0.494000
H181	H18	0.599700	0.922300	0.475300
C311	C31	0.168700	0.863100	0.255400
H191	H19	0.149900	0.828700	0.237200
C321	C32	0.279900	0.470200	0.328300
H201	H20	0.264100	0.438500	0.305600
C331	C33	0.134600	0.586300	0.181000
H211	H21	0.129400	0.645900	0.184000
C341	C34	0.469100	0.595200	0.479300
H221	H22	0.480600	0.622500	0.505900
C351	C35	0.432700	0.517200	0.402000
H231	H23	0.419700	0.491900	0.375400
C361	C36	0.463400	0.572000	0.401400
H241	H24	0.471400	0.582500	0.374900
I71	I7	0.524000	0.853500	0.138010
I81	I8	0.242930	0.222340	0.313750
I91	I9	0.136090	0.176920	0.207660
I101	I10	0.613350	0.762320	0.062560
I111	I11	0.896770	0.770720	0.403040
I121	I12	0.854440	0.915610	0.510820
Zn41	Zn4	0.577910	0.880280	0.096080
Zn51	Zn5	0.179820	0.140560	0.283140
Zn61	Zn6	0.875680	0.910140	0.436970
N131	N13	0.062920	0.522100	0.548920
N141	N14	0.690170	0.506400	0.282500
N151	N15	0.920520	0.998600	0.440000
N161	N16	0.682220	0.183200	0.248400
N171	N17	0.833220	0.971700	0.390800
N181	N18	0.617880	0.952500	0.141300
N191	N19	0.020280	0.237000	0.470460
N201	N20	0.719360	0.055500	0.271800
N211	N21	0.144980	0.157900	0.328700
N221	N22	0.073490	0.282800	0.439760
N231	N23	0.037450	0.155100	0.411460
C371	C37	0.690110	0.098000	0.245700
N241	N24	0.738020	0.193000	0.307100
C381	C38	0.665160	0.047000	0.209500
C391	C39	0.742080	0.105800	0.302500
C401	C40	0.773990	0.060100	0.333500
C411	C41	0.048890	0.292900	0.466800
C421	C42	0.721600	0.469600	0.306000
H251	H25	0.740000	0.505700	0.323600
C431	C43	0.707840	0.227600	0.279000
C441	C44	0.066630	0.211300	0.413200
C451	C45	0.728600	0.380500	0.305800
H261	H26	0.751400	0.357600	0.322800
C461	C46	0.982310	0.111600	0.440800
C471	C47	0.053180	0.372700	0.495100
C481	C48	0.664000	0.453300	0.257600
H271	H27	0.641500	0.478300	0.240900
C491	C49	0.015250	0.171500	0.441100
C501	C50	0.033750	0.465400	0.549400
H281	H28	0.017000	0.476600	0.568300
C511	C51	0.672000	0.958900	0.202400
H291	H29	0.692700	0.929800	0.220500
C521	C52	0.093670	0.194000	0.383500
C531	C53	0.809600	0.929300	0.357500
H301	H30	0.813500	0.869300	0.354000
C541	C54	0.027700	0.391100	0.522800
H311	H31	0.006900	0.353800	0.523500
C551	C55	0.798600	0.104700	0.367000
H321	H32	0.796100	0.165200	0.370700
C561	C56	0.648000	0.914900	0.168400
H331	H33	0.653100	0.855800	0.164000
C571	C57	0.701400	0.325000	0.280500
C581	C58	0.155100	0.211400	0.363800
H341	H34	0.179700	0.236300	0.369600
C591	C59	0.938400	0.038000	0.477500
H351	H35	0.929900	0.026300	0.503600
C601	C60	0.130300	0.231300	0.391800
H361	H36	0.138100	0.269100	0.415900
C611	C61	0.611800	0.037300	0.148100
H371	H37	0.591000	0.065000	0.129500
C621	C62	0.086300	0.505900	0.521200
H381	H38	0.106000	0.545800	0.519900
C631	C63	0.082900	0.137800	0.346600
H391	H39	0.058500	0.111500	0.340200
C641	C64	0.827500	0.057100	0.395100
H401	H40	0.843800	0.087000	0.418200
C651	C65	0.109300	0.122500	0.320300
H411	H41	0.102000	0.086000	0.295500
C661	C66	0.082500	0.431800	0.494000
H421	H42	0.099700	0.422300	0.475300
C671	C67	0.668700	0.363100	0.255400
H431	H43	0.649900	0.328700	0.237200
C681	C68	0.779900	0.970200	0.328300
H441	H44	0.764100	0.938500	0.305600
C691	C69	0.634600	0.086300	0.181000
H451	H45	0.629400	0.145900	0.184000
C701	C70	0.969100	0.095200	0.479300
H461	H46	0.980600	0.122500	0.505900
C711	C71	0.932700	0.017200	0.402000
H471	H47	0.919700	0.991900	0.375400
C721	C72	0.963400	0.072000	0.401400
H481	H48	0.971400	0.082500	0.374900
I131	I13	0.024000	0.646500	0.638010
I141	I14	0.742930	0.277660	0.813750
I151	I15	0.636090	0.323080	0.707660
I161	I16	0.113350	0.737680	0.562560
I171	I17	0.396770	0.729280	0.903040
I181	I18	0.354440	0.584390	0.010820
Zn71	Zn7	0.077910	0.619720	0.596080
Zn81	Zn8	0.679820	0.359440	0.783140
Zn91	Zn9	0.375680	0.589860	0.936970
N251	N25	0.562920	0.977900	0.048920
N261	N26	0.190170	0.993600	0.782500
N271	N27	0.420520	0.501400	0.940000
N281	N28	0.182220	0.316800	0.748400
N291	N29	0.333220	0.528300	0.890800
N301	N30	0.117880	0.547500	0.641300
N311	N31	0.520280	0.263000	0.970460
N321	N32	0.219360	0.444500	0.771800
N331	N33	0.644980	0.342100	0.828700
N341	N34	0.573490	0.217200	0.939760
N351	N35	0.537450	0.344900	0.911460
C731	C73	0.190110	0.402000	0.745700
N361	N36	0.238020	0.307000	0.807100
C741	C74	0.165160	0.453000	0.709500
C751	C75	0.242080	0.394200	0.802500
C761	C76	0.273990	0.439900	0.833500
C771	C77	0.548890	0.207100	0.966800
C781	C78	0.221600	0.030400	0.806000
H491	H49	0.240000	0.994300	0.823600
C791	C79	0.207840	0.272400	0.779000
C801	C80	0.566630	0.288700	0.913200
C811	C81	0.228600	0.119500	0.805800
H501	H50	0.251400	0.142400	0.822800
C821	C82	0.482310	0.388400	0.940800
C831	C83	0.553180	0.127300	0.995100
C841	C84	0.164000	0.046700	0.757600
H511	H51	0.141500	0.021700	0.740900
C851	C85	0.515250	0.328500	0.941100
C861	C86	0.533750	0.034600	0.049400
H521	H52	0.517000	0.023400	0.068300
C871	C87	0.172000	0.541100	0.702400
H531	H53	0.192700	0.570200	0.720500
C881	C88	0.593670	0.306000	0.883500
C891	C89	0.309600	0.570700	0.857500
H541	H54	0.313500	0.630700	0.854000
C901	C90	0.527700	0.108900	0.022800
H551	H55	0.506900	0.146200	0.023500
C911	C91	0.298600	0.395300	0.867000
H561	H56	0.296100	0.334800	0.870700
C921	C92	0.148000	0.585100	0.668400
H571	H57	0.153100	0.644200	0.664000
C931	C93	0.201400	0.175000	0.780500
C941	C94	0.655100	0.288600	0.863800
H581	H58	0.679700	0.263700	0.869600
C951	C95	0.438400	0.462000	0.977500
H591	H59	0.429900	0.473700	0.003600
C961	C96	0.630300	0.268700	0.891800
H601	H60	0.638100	0.230900	0.915900
C971	C97	0.111800	0.462700	0.648100
H611	H61	0.091000	0.435000	0.629500
C981	C98	0.586300	0.994100	0.021200
H621	H62	0.606000	0.954200	0.019900
C991	C99	0.582900	0.362200	0.846600
H631	H63	0.558500	0.388500	0.840200
C1001	C100	0.327500	0.442900	0.895100
H641	H64	0.343800	0.413000	0.918200
C1011	C101	0.609300	0.377500	0.820300
H651	H65	0.602000	0.414000	0.795500
C1021	C102	0.582500	0.068200	0.994000
H661	H66	0.599700	0.077700	0.975300
C1031	C103	0.168700	0.136900	0.755400
H671	H67	0.149900	0.171300	0.737200
C1041	C104	0.279900	0.529800	0.828300
H681	H68	0.264100	0.561500	0.805600
C1051	C105	0.134600	0.413700	0.681000
H691	H69	0.129400	0.354100	0.684000
C1061	C106	0.469100	0.404800	0.979300
H701	H70	0.480600	0.377500	0.005900
C1071	C107	0.432700	0.482800	0.902000
H711	H71	0.419700	0.508100	0.875400
C1081	C108	0.463400	0.428000	0.901400
H721	H72	0.471400	0.417500	0.874900
I191	I19	0.524000	0.146500	0.638010
I201	I20	0.242930	0.777660	0.813750
I211	I21	0.136090	0.823080	0.707660
I221	I22	0.613350	0.237680	0.562560
I231	I23	0.896770	0.229280	0.903040
I241	I24	0.854440	0.084390	0.010820
Zn101	Zn10	0.577910	0.119720	0.596080
Zn111	Zn11	0.179820	0.859440	0.783140
Zn121	Zn12	0.875680	0.089860	0.936970
N371	N37	0.062920	0.477900	0.048920
N381	N38	0.690170	0.493600	0.782500
N391	N39	0.920520	0.001400	0.940000
N401	N40	0.682220	0.816800	0.748400
N411	N41	0.833220	0.028300	0.890800
N421	N42	0.617880	0.047500	0.641300
N431	N43	0.020280	0.763000	0.970460
N441	N44	0.719360	0.944500	0.771800
N451	N45	0.144980	0.842100	0.828700
N461	N46	0.073490	0.717200	0.939760
N471	N47	0.037450	0.844900	0.911460
C1091	C109	0.690110	0.902000	0.745700
N481	N48	0.738020	0.807000	0.807100
C1101	C110	0.665160	0.953000	0.709500
C1111	C111	0.742080	0.894200	0.802500
C1121	C112	0.773990	0.939900	0.833500
C1131	C113	0.048890	0.707100	0.966800
C1141	C114	0.721600	0.530400	0.806000
H731	H73	0.740000	0.494300	0.823600
C1151	C115	0.707840	0.772400	0.779000
C1161	C116	0.066630	0.788700	0.913200
C1171	C117	0.728600	0.619500	0.805800
H741	H74	0.751400	0.642400	0.822800
C1181	C118	0.982310	0.888400	0.940800
C1191	C119	0.053180	0.627300	0.995100
C1201	C120	0.664000	0.546700	0.757600
H751	H75	0.641500	0.521700	0.740900
C1211	C121	0.015250	0.828500	0.941100
C1221	C122	0.033750	0.534600	0.049400
H761	H76	0.017000	0.523400	0.068300
C1231	C123	0.672000	0.041100	0.702400
H771	H77	0.692700	0.070200	0.720500
C1241	C124	0.093670	0.806000	0.883500
C1251	C125	0.809600	0.070700	0.857500
H781	H78	0.813500	0.130700	0.854000
C1261	C126	0.027700	0.608900	0.022800
H791	H79	0.006900	0.646200	0.023500
C1271	C127	0.798600	0.895300	0.867000
H801	H80	0.796100	0.834800	0.870700
C1281	C128	0.648000	0.085100	0.668400
H811	H81	0.653100	0.144200	0.664000
C1291	C129	0.701400	0.675000	0.780500
C1301	C130	0.155100	0.788600	0.863800
H821	H82	0.179700	0.763700	0.869600
C1311	C131	0.938400	0.962000	0.977500
H831	H83	0.929900	0.973700	0.003600
C1321	C132	0.130300	0.768700	0.891800
H841	H84	0.138100	0.730900	0.915900
C1331	C133	0.611800	0.962700	0.648100
H851	H85	0.591000	0.935000	0.629500
C1341	C134	0.086300	0.494100	0.021200
H861	H86	0.106000	0.454200	0.019900
C1351	C135	0.082900	0.862200	0.846600
H871	H87	0.058500	0.888500	0.840200
C1361	C136	0.827500	0.942900	0.895100
H881	H88	0.843800	0.913000	0.918200
C1371	C137	0.109300	0.877500	0.820300
H891	H89	0.102000	0.914000	0.795500
C1381	C138	0.082500	0.568200	0.994000
H901	H90	0.099700	0.577700	0.975300
C1391	C139	0.668700	0.636900	0.755400
H911	H91	0.649900	0.671300	0.737200
C1401	C140	0.779900	0.029800	0.828300
H921	H92	0.764100	0.061500	0.805600
C1411	C141	0.634600	0.913700	0.681000
H931	H93	0.629400	0.854100	0.684000
C1421	C142	0.969100	0.904800	0.979300
H941	H94	0.980600	0.877500	0.005900
C1431	C143	0.932700	0.982800	0.902000
H951	H95	0.919700	0.008100	0.875400
C1441	C144	0.963400	0.928000	0.901400
H961	H96	0.971400	0.917500	0.874900
I251	I25	0.976000	0.353500	0.361990
I261	I26	0.257070	0.722340	0.186250
I271	I27	0.363910	0.676920	0.292340
I281	I28	0.886650	0.262320	0.437440
I291	I29	0.603230	0.270720	0.096960
I301	I30	0.645560	0.415610	0.989180
Zn131	Zn13	0.922090	0.380280	0.403920
Zn141	Zn14	0.320180	0.640560	0.216860
Zn151	Zn15	0.624320	0.410140	0.063030
N491	N49	0.437080	0.022100	0.951080
N501	N50	0.809830	0.006400	0.217500
N511	N51	0.579480	0.498600	0.060000
N521	N52	0.817780	0.683200	0.251600
N531	N53	0.666780	0.471700	0.109200
N541	N54	0.882120	0.452500	0.358700
N551	N55	0.479720	0.737000	0.029540
N561	N56	0.780640	0.555500	0.228200
N571	N57	0.355020	0.657900	0.171300
N581	N58	0.426510	0.782800	0.060240
N591	N59	0.462550	0.655100	0.088540
C1451	C145	0.809890	0.598000	0.254300
N601	N60	0.761980	0.693000	0.192900
C1461	C146	0.834840	0.547000	0.290500
C1471	C147	0.757920	0.605800	0.197500
C1481	C148	0.726010	0.560100	0.166500
C1491	C149	0.451110	0.792900	0.033200
C1501	C150	0.778400	0.969600	0.194000
H971	H97	0.760000	0.005700	0.176400
C1511	C151	0.792160	0.727600	0.221000
C1521	C152	0.433370	0.711300	0.086800
C1531	C153	0.771400	0.880500	0.194200
H981	H98	0.748600	0.857600	0.177200
C1541	C154	0.517690	0.611600	0.059200
C1551	C155	0.446820	0.872700	0.004900
C1561	C156	0.836000	0.953300	0.242400
H991	H99	0.858500	0.978300	0.259100
C1571	C157	0.484750	0.671500	0.058900
C1581	C158	0.466250	0.965400	0.950600
H1001	H100	0.483000	0.976600	0.931700
C1591	C159	0.828000	0.458900	0.297600
H1011	H101	0.807300	0.429800	0.279500
C1601	C160	0.406330	0.694000	0.116500
C1611	C161	0.690400	0.429300	0.142500
H1021	H102	0.686500	0.369300	0.146000
C1621	C162	0.472300	0.891100	0.977200
H1031	H103	0.493100	0.853800	0.976500
C1631	C163	0.701400	0.604700	0.133000
H1041	H104	0.703900	0.665200	0.129300
C1641	C164	0.852000	0.414900	0.331600
H1051	H105	0.846900	0.355800	0.336000
C1651	C165	0.798600	0.825000	0.219500
C1661	C166	0.344900	0.711400	0.136200
H1061	H106	0.320300	0.736300	0.130400
C1671	C167	0.561600	0.538000	0.022500
H1071	H107	0.570100	0.526300	0.996400
C1681	C168	0.369700	0.731300	0.108200
H1081	H108	0.361900	0.769100	0.084100
C1691	C169	0.888200	0.537300	0.351900
H1091	H109	0.909000	0.565000	0.370500
C1701	C170	0.413700	0.005900	0.978800
H1101	H110	0.394000	0.045800	0.980100
C1711	C171	0.417100	0.637800	0.153400
H1111	H111	0.441500	0.611500	0.159800
C1721	C172	0.672500	0.557100	0.104900
H1121	H112	0.656200	0.587000	0.081800
C1731	C173	0.390700	0.622500	0.179700
H1131	H113	0.398000	0.586000	0.204500
C1741	C174	0.417500	0.931800	0.006000
H1141	H114	0.400300	0.922300	0.024700
C1751	C175	0.831300	0.863100	0.244600
H1151	H115	0.850100	0.828700	0.262800
C1761	C176	0.720100	0.470200	0.171700
H1161	H116	0.735900	0.438500	0.194400
C1771	C177	0.865400	0.586300	0.319000
H1171	H117	0.870600	0.645900	0.316000
C1781	C178	0.530900	0.595200	0.020700
H1181	H118	0.519400	0.622500	0.994100
C1791	C179	0.567300	0.517200	0.098000
H1191	H119	0.580300	0.491900	0.124600
C1801	C180	0.536600	0.572000	0.098600
H1201	H120	0.528600	0.582500	0.125100
I311	I31	0.476000	0.853500	0.361990
I321	I32	0.757070	0.222340	0.186250
I331	I33	0.863910	0.176920	0.292340
I341	I34	0.386650	0.762320	0.437440
I351	I35	0.103230	0.770720	0.096960
I361	I36	0.145560	0.915610	0.989180
Zn161	Zn16	0.422090	0.880280	0.403920
Zn171	Zn17	0.820180	0.140560	0.216860
Zn181	Zn18	0.124320	0.910140	0.063030
N611	N61	0.937080	0.522100	0.951080
N621	N62	0.309830	0.506400	0.217500
N631	N63	0.079480	0.998600	0.060000
N641	N64	0.317780	0.183200	0.251600
N651	N65	0.166780	0.971700	0.109200
N661	N66	0.382120	0.952500	0.358700
N671	N67	0.979720	0.237000	0.029540
N681	N68	0.280640	0.055500	0.228200
N691	N69	0.855020	0.157900	0.171300
N701	N70	0.926510	0.282800	0.060240
N711	N71	0.962550	0.155100	0.088540
C1811	C181	0.309890	0.098000	0.254300
N721	N72	0.261980	0.193000	0.192900
C1821	C182	0.334840	0.047000	0.290500
C1831	C183	0.257920	0.105800	0.197500
C1841	C184	0.226010	0.060100	0.166500
C1851	C185	0.951110	0.292900	0.033200
C1861	C186	0.278400	0.469600	0.194000
H1211	H121	0.260000	0.505700	0.176400
C1871	C187	0.292160	0.227600	0.221000
C1881	C188	0.933370	0.211300	0.086800
C1891	C189	0.271400	0.380500	0.194200
H1221	H122	0.248600	0.357600	0.177200
C1901	C190	0.017690	0.111600	0.059200
C1911	C191	0.946820	0.372700	0.004900
C1921	C192	0.336000	0.453300	0.242400
H1231	H123	0.358500	0.478300	0.259100
C1931	C193	0.984750	0.171500	0.058900
C1941	C194	0.966250	0.465400	0.950600
H1241	H124	0.983000	0.476600	0.931700
C1951	C195	0.328000	0.958900	0.297600
H1251	H125	0.307300	0.929800	0.279500
C1961	C196	0.906330	0.194000	0.116500
C1971	C197	0.190400	0.929300	0.142500
H1261	H126	0.186500	0.869300	0.146000
C1981	C198	0.972300	0.391100	0.977200
H1271	H127	0.993100	0.353800	0.976500
C1991	C199	0.201400	0.104700	0.133000
H1281	H128	0.203900	0.165200	0.129300
C2001	C200	0.352000	0.914900	0.331600
H1291	H129	0.346900	0.855800	0.336000
C2011	C201	0.298600	0.325000	0.219500
C2021	C202	0.844900	0.211400	0.136200
H1301	H130	0.820300	0.236300	0.130400
C2031	C203	0.061600	0.038000	0.022500
H1311	H131	0.070100	0.026300	0.996400
C2041	C204	0.869700	0.231300	0.108200
H1321	H132	0.861900	0.269100	0.084100
C2051	C205	0.388200	0.037300	0.351900
H1331	H133	0.409000	0.065000	0.370500
C2061	C206	0.913700	0.505900	0.978800
H1341	H134	0.894000	0.545800	0.980100
C2071	C207	0.917100	0.137800	0.153400
H1351	H135	0.941500	0.111500	0.159800
C2081	C208	0.172500	0.057100	0.104900
H1361	H136	0.156200	0.087000	0.081800
C2091	C209	0.890700	0.122500	0.179700
H1371	H137	0.898000	0.086000	0.204500
C2101	C210	0.917500	0.431800	0.006000
H1381	H138	0.900300	0.422300	0.024700
C2111	C211	0.331300	0.363100	0.244600
H1391	H139	0.350100	0.328700	0.262800
C2121	C212	0.220100	0.970200	0.171700
H1401	H140	0.235900	0.938500	0.194400
C2131	C213	0.365400	0.086300	0.319000
H1411	H141	0.370600	0.145900	0.316000
C2141	C214	0.030900	0.095200	0.020700
H1421	H142	0.019400	0.122500	0.994100
C2151	C215	0.067300	0.017200	0.098000
H1431	H143	0.080300	0.991900	0.124600
C2161	C216	0.036600	0.072000	0.098600
H1441	H144	0.028600	0.082500	0.125100
I371	I37	0.976000	0.646500	0.861990
I381	I38	0.257070	0.277660	0.686250
I391	I39	0.363910	0.323080	0.792340
I401	I40	0.886650	0.737680	0.937440
I411	I41	0.603230	0.729280	0.596960
I421	I42	0.645560	0.584390	0.489180
Zn191	Zn19	0.922090	0.619720	0.903920
Zn201	Zn20	0.320180	0.359440	0.716860
Zn211	Zn21	0.624320	0.589860	0.563030
N731	N73	0.437080	0.977900	0.451080
N741	N74	0.809830	0.993600	0.717500
N751	N75	0.579480	0.501400	0.560000
N761	N76	0.817780	0.316800	0.751600
N771	N77	0.666780	0.528300	0.609200
N781	N78	0.882120	0.547500	0.858700
N791	N79	0.479720	0.263000	0.529540
N801	N80	0.780640	0.444500	0.728200
N811	N81	0.355020	0.342100	0.671300
N821	N82	0.426510	0.217200	0.560240
N831	N83	0.462550	0.344900	0.588540
C2171	C217	0.809890	0.402000	0.754300
N841	N84	0.761980	0.307000	0.692900
C2181	C218	0.834840	0.453000	0.790500
C2191	C219	0.757920	0.394200	0.697500
C2201	C220	0.726010	0.439900	0.666500
C2211	C221	0.451110	0.207100	0.533200
C2221	C222	0.778400	0.030400	0.694000
H1451	H145	0.760000	0.994300	0.676400
C2231	C223	0.792160	0.272400	0.721000
C2241	C224	0.433370	0.288700	0.586800
C2251	C225	0.771400	0.119500	0.694200
H1461	H146	0.748600	0.142400	0.677200
C2261	C226	0.517690	0.388400	0.559200
C2271	C227	0.446820	0.127300	0.504900
C2281	C228	0.836000	0.046700	0.742400
H1471	H147	0.858500	0.021700	0.759100
C2291	C229	0.484750	0.328500	0.558900
C2301	C230	0.466250	0.034600	0.450600
H1481	H148	0.483000	0.023400	0.431700
C2311	C231	0.828000	0.541100	0.797600
H1491	H149	0.807300	0.570200	0.779500
C2321	C232	0.406330	0.306000	0.616500
C2331	C233	0.690400	0.570700	0.642500
H1501	H150	0.686500	0.630700	0.646000
C2341	C234	0.472300	0.108900	0.477200
H1511	H151	0.493100	0.146200	0.476500
C2351	C235	0.701400	0.395300	0.633000
H1521	H152	0.703900	0.334800	0.629300
C2361	C236	0.852000	0.585100	0.831600
H1531	H153	0.846900	0.644200	0.836000
C2371	C237	0.798600	0.175000	0.719500
C2381	C238	0.344900	0.288600	0.636200
H1541	H154	0.320300	0.263700	0.630400
C2391	C239	0.561600	0.462000	0.522500
H1551	H155	0.570100	0.473700	0.496400
C2401	C240	0.369700	0.268700	0.608200
H1561	H156	0.361900	0.230900	0.584100
C2411	C241	0.888200	0.462700	0.851900
H1571	H157	0.909000	0.435000	0.870500
C2421	C242	0.413700	0.994100	0.478800
H1581	H158	0.394000	0.954200	0.480100
C2431	C243	0.417100	0.362200	0.653400
H1591	H159	0.441500	0.388500	0.659800
C2441	C244	0.672500	0.442900	0.604900
H1601	H160	0.656200	0.413000	0.581800
C2451	C245	0.390700	0.377500	0.679700
H1611	H161	0.398000	0.414000	0.704500
C2461	C246	0.417500	0.068200	0.506000
H1621	H162	0.400300	0.077700	0.524700
C2471	C247	0.831300	0.136900	0.744600
H1631	H163	0.850100	0.171300	0.762800
C2481	C248	0.720100	0.529800	0.671700
H1641	H164	0.735900	0.561500	0.694400
C2491	C249	0.865400	0.413700	0.819000
H1651	H165	0.870600	0.354100	0.816000
C2501	C250	0.530900	0.404800	0.520700
H1661	H166	0.519400	0.377500	0.494100
C2511	C251	0.567300	0.482800	0.598000
H1671	H167	0.580300	0.508100	0.624600
C2521	C252	0.536600	0.428000	0.598600
H1681	H168	0.528600	0.417500	0.625100
I431	I43	0.476000	0.146500	0.861990
I441	I44	0.757070	0.777660	0.686250
I451	I45	0.863910	0.823080	0.792340
I461	I46	0.386650	0.237680	0.937440
I471	I47	0.103230	0.229280	0.596960
I481	I48	0.145560	0.084390	0.489180
Zn221	Zn22	0.422090	0.119720	0.903920
Zn231	Zn23	0.820180	0.859440	0.716860
Zn241	Zn24	0.124320	0.089860	0.563030
N851	N85	0.937080	0.477900	0.451080
N861	N86	0.309830	0.493600	0.717500
N871	N87	0.079480	0.001400	0.560000
N881	N88	0.317780	0.816800	0.751600
N891	N89	0.166780	0.028300	0.609200
N901	N90	0.382120	0.047500	0.858700
N911	N91	0.979720	0.763000	0.529540
N921	N92	0.280640	0.944500	0.728200
N931	N93	0.855020	0.842100	0.671300
N941	N94	0.926510	0.717200	0.560240
N951	N95	0.962550	0.844900	0.588540
C2531	C253	0.309890	0.902000	0.754300
N961	N96	0.261980	0.807000	0.692900
C2541	C254	0.334840	0.953000	0.790500
C2551	C255	0.257920	0.894200	0.697500
C2561	C256	0.226010	0.939900	0.666500
C2571	C257	0.951110	0.707100	0.533200
C2581	C258	0.278400	0.530400	0.694000
H1691	H169	0.260000	0.494300	0.676400
C2591	C259	0.292160	0.772400	0.721000
C2601	C260	0.933370	0.788700	0.586800
C2611	C261	0.271400	0.619500	0.694200
H1701	H170	0.248600	0.642400	0.677200
C2621	C262	0.017690	0.888400	0.559200
C2631	C263	0.946820	0.627300	0.504900
C2641	C264	0.336000	0.546700	0.742400
H1711	H171	0.358500	0.521700	0.759100
C2651	C265	0.984750	0.828500	0.558900
C2661	C266	0.966250	0.534600	0.450600
H1721	H172	0.983000	0.523400	0.431700
C2671	C267	0.328000	0.041100	0.797600
H1731	H173	0.307300	0.070200	0.779500
C2681	C268	0.906330	0.806000	0.616500
C2691	C269	0.190400	0.070700	0.642500
H1741	H174	0.186500	0.130700	0.646000
C2701	C270	0.972300	0.608900	0.477200
H1751	H175	0.993100	0.646200	0.476500
C2711	C271	0.201400	0.895300	0.633000
H1761	H176	0.203900	0.834800	0.629300
C2721	C272	0.352000	0.085100	0.831600
H1771	H177	0.346900	0.144200	0.836000
C2731	C273	0.298600	0.675000	0.719500
C2741	C274	0.844900	0.788600	0.636200
H1781	H178	0.820300	0.763700	0.630400
C2751	C275	0.061600	0.962000	0.522500
H1791	H179	0.070100	0.973700	0.496400
C2761	C276	0.869700	0.768700	0.608200
H1801	H180	0.861900	0.730900	0.584100
C2771	C277	0.388200	0.962700	0.851900
H1811	H181	0.409000	0.935000	0.870500
C2781	C278	0.913700	0.494100	0.478800
H1821	H182	0.894000	0.454200	0.480100
C2791	C279	0.917100	0.862200	0.653400
H1831	H183	0.941500	0.888500	0.659800
C2801	C280	0.172500	0.942900	0.604900
H1841	H184	0.156200	0.913000	0.581800
C2811	C281	0.890700	0.877500	0.679700
H1851	H185	0.898000	0.914000	0.704500
C2821	C282	0.917500	0.568200	0.506000
H1861	H186	0.900300	0.577700	0.524700
C2831	C283	0.331300	0.636900	0.744600
H1871	H187	0.350100	0.671300	0.762800
C2841	C284	0.220100	0.029800	0.671700
H1881	H188	0.235900	0.061500	0.694400
C2851	C285	0.365400	0.913700	0.819000
H1891	H189	0.370600	0.854100	0.816000
C2861	C286	0.030900	0.904800	0.520700
H1901	H190	0.019400	0.877500	0.494100
C2871	C287	0.067300	0.982800	0.598000
H1911	H191	0.080300	0.008100	0.624600
C2881	C288	0.036600	0.928000	0.598600
H1921	H192	0.028600	0.917500	0.625100
