data_UMABIV_clean_PM
_symmetry_space_group_name_H-M	'P1'
_cell_length_a	19.707000
_cell_length_b	18.175400
_cell_length_c	12.608500
_cell_angle_alpha	90.000000
_cell_angle_beta	90.000000
_cell_angle_gamma	90.000000
_symmetry_Int_Tables_number 1

loop_
_symmetry_equiv_pos_as_xyz
'x,y,z'

loop_
_atom_site_label
_atom_site_type_symbol
_atom_site_fract_x
_atom_site_fract_y
_atom_site_fract_z
Cd11	Cd1	0.158880	0.163390	0.211630
O11	O1	0.133600	0.146600	0.931500
O21	O2	0.105800	0.214300	0.071800
C11	C1	0.097700	0.192900	0.978600
C21	C2	0.039500	0.224600	0.915600
C31	C3	0.014700	0.192300	0.826400
H11	H1	0.033200	0.147200	0.802000
C41	C4	0.962800	0.225500	0.772100
H21	H2	0.945500	0.201800	0.710500
N11	N1	0.934800	0.290800	0.802200
C51	C5	0.960300	0.324000	0.889500
H31	H3	0.942400	0.370200	0.910800
C61	C6	0.011900	0.292000	0.948800
H41	H4	0.028300	0.315500	0.011100
C71	C7	0.193500	0.143200	0.702300
H51	H5	0.151900	0.147700	0.739800
C81	C8	0.191000	0.130700	0.592900
H61	H6	0.148400	0.123400	0.559000
O31	O3	0.193600	0.116200	0.371500
C91	C9	0.305600	0.985600	0.883600
H71	H7	0.347300	0.009600	0.898500
C101	C10	0.308400	0.915500	0.841200
H81	H8	0.350700	0.892100	0.828800
O41	O4	0.304400	0.778400	0.749000
Cd21	Cd2	0.158880	0.663390	0.711630
O51	O5	0.133600	0.646600	0.431500
O61	O6	0.105800	0.714300	0.571800
C111	C11	0.097700	0.692900	0.478600
C121	C12	0.039500	0.724600	0.415600
C131	C13	0.014700	0.692300	0.326400
H91	H9	0.033200	0.647200	0.302000
C141	C14	0.962800	0.725500	0.272100
H101	H10	0.945500	0.701800	0.210500
N21	N2	0.934800	0.790800	0.302200
C151	C15	0.960300	0.824000	0.389500
H111	H11	0.942400	0.870200	0.410800
C161	C16	0.011900	0.792000	0.448800
H121	H12	0.028300	0.815500	0.511100
C171	C17	0.193500	0.643200	0.202300
H131	H13	0.151900	0.647700	0.239800
C181	C18	0.191000	0.630700	0.092900
H141	H14	0.148400	0.623400	0.059000
O71	O7	0.193600	0.616200	0.871500
C191	C19	0.305600	0.485600	0.383600
H151	H15	0.347300	0.509600	0.398500
C201	C20	0.308400	0.415500	0.341200
H161	H16	0.350700	0.392100	0.328800
O81	O8	0.304400	0.278400	0.249000
Cd31	Cd3	0.841120	0.836610	0.211630
O91	O9	0.866400	0.853400	0.931500
O101	O10	0.894200	0.785700	0.071800
C211	C21	0.902300	0.807100	0.978600
C221	C22	0.960500	0.775400	0.915600
C231	C23	0.985300	0.807700	0.826400
H171	H17	0.966800	0.852800	0.802000
C241	C24	0.037200	0.774500	0.772100
H181	H18	0.054500	0.798200	0.710500
N31	N3	0.065200	0.709200	0.802200
C251	C25	0.039700	0.676000	0.889500
H191	H19	0.057600	0.629800	0.910800
C261	C26	0.988100	0.708000	0.948800
H201	H20	0.971700	0.684500	0.011100
C271	C27	0.806500	0.856800	0.702300
H211	H21	0.848100	0.852300	0.739800
C281	C28	0.809000	0.869300	0.592900
H221	H22	0.851600	0.876600	0.559000
O111	O11	0.806400	0.883800	0.371500
C291	C29	0.694400	0.014400	0.883600
H231	H23	0.652700	0.990400	0.898500
C301	C30	0.691600	0.084500	0.841200
H241	H24	0.649300	0.107900	0.828800
O121	O12	0.695600	0.221600	0.749000
Cd41	Cd4	0.841120	0.336610	0.711630
O131	O13	0.866400	0.353400	0.431500
O141	O14	0.894200	0.285700	0.571800
C311	C31	0.902300	0.307100	0.478600
C321	C32	0.960500	0.275400	0.415600
C331	C33	0.985300	0.307700	0.326400
H251	H25	0.966800	0.352800	0.302000
C341	C34	0.037200	0.274500	0.272100
H261	H26	0.054500	0.298200	0.210500
N41	N4	0.065200	0.209200	0.302200
C351	C35	0.039700	0.176000	0.389500
H271	H27	0.057600	0.129800	0.410800
C361	C36	0.988100	0.208000	0.448800
H281	H28	0.971700	0.184500	0.511100
C371	C37	0.806500	0.356800	0.202300
H291	H29	0.848100	0.352300	0.239800
C381	C38	0.809000	0.369300	0.092900
H301	H30	0.851600	0.376600	0.059000
O151	O15	0.806400	0.383800	0.871500
C391	C39	0.694400	0.514400	0.383600
H311	H31	0.652700	0.490400	0.398500
C401	C40	0.691600	0.584500	0.341200
H321	H32	0.649300	0.607900	0.328800
O161	O16	0.695600	0.721600	0.249000
Cd51	Cd5	0.658880	0.836610	0.211630
O171	O17	0.633600	0.853400	0.931500
O181	O18	0.605800	0.785700	0.071800
C411	C41	0.597700	0.807100	0.978600
C421	C42	0.539500	0.775400	0.915600
C431	C43	0.514700	0.807700	0.826400
H331	H33	0.533200	0.852800	0.802000
C441	C44	0.462800	0.774500	0.772100
H341	H34	0.445500	0.798200	0.710500
N51	N5	0.434800	0.709200	0.802200
C451	C45	0.460300	0.676000	0.889500
H351	H35	0.442400	0.629800	0.910800
C461	C46	0.511900	0.708000	0.948800
H361	H36	0.528300	0.684500	0.011100
C471	C47	0.693500	0.856800	0.702300
H371	H37	0.651900	0.852300	0.739800
C481	C48	0.691000	0.869300	0.592900
H381	H38	0.648400	0.876600	0.559000
O191	O19	0.693600	0.883800	0.371500
C491	C49	0.805600	0.014400	0.883600
H391	H39	0.847300	0.990400	0.898500
C501	C50	0.808400	0.084500	0.841200
H401	H40	0.850700	0.107900	0.828800
O201	O20	0.804400	0.221600	0.749000
Cd61	Cd6	0.658880	0.336610	0.711630
O211	O21	0.633600	0.353400	0.431500
O221	O22	0.605800	0.285700	0.571800
C511	C51	0.597700	0.307100	0.478600
C521	C52	0.539500	0.275400	0.415600
C531	C53	0.514700	0.307700	0.326400
H411	H41	0.533200	0.352800	0.302000
C541	C54	0.462800	0.274500	0.272100
H421	H42	0.445500	0.298200	0.210500
N61	N6	0.434800	0.209200	0.302200
C551	C55	0.460300	0.176000	0.389500
H431	H43	0.442400	0.129800	0.410800
C561	C56	0.511900	0.208000	0.448800
H441	H44	0.528300	0.184500	0.511100
C571	C57	0.693500	0.356800	0.202300
H451	H45	0.651900	0.352300	0.239800
C581	C58	0.691000	0.369300	0.092900
H461	H46	0.648400	0.376600	0.059000
O231	O23	0.693600	0.383800	0.871500
C591	C59	0.805600	0.514400	0.383600
H471	H47	0.847300	0.490400	0.398500
C601	C60	0.808400	0.584500	0.341200
H481	H48	0.850700	0.607900	0.328800
O241	O24	0.804400	0.721600	0.249000
Cd71	Cd7	0.341120	0.163390	0.211630
O251	O25	0.366400	0.146600	0.931500
O261	O26	0.394200	0.214300	0.071800
C611	C61	0.402300	0.192900	0.978600
C621	C62	0.460500	0.224600	0.915600
C631	C63	0.485300	0.192300	0.826400
H491	H49	0.466800	0.147200	0.802000
C641	C64	0.537200	0.225500	0.772100
H501	H50	0.554500	0.201800	0.710500
N71	N7	0.565200	0.290800	0.802200
C651	C65	0.539700	0.324000	0.889500
H511	H51	0.557600	0.370200	0.910800
C661	C66	0.488100	0.292000	0.948800
H521	H52	0.471700	0.315500	0.011100
C671	C67	0.306500	0.143200	0.702300
H531	H53	0.348100	0.147700	0.739800
C681	C68	0.309000	0.130700	0.592900
H541	H54	0.351600	0.123400	0.559000
O271	O27	0.306400	0.116200	0.371500
C691	C69	0.194400	0.985600	0.883600
H551	H55	0.152700	0.009600	0.898500
C701	C70	0.191600	0.915500	0.841200
H561	H56	0.149300	0.892100	0.828800
O281	O28	0.195600	0.778400	0.749000
Cd81	Cd8	0.341120	0.663390	0.711630
O291	O29	0.366400	0.646600	0.431500
O301	O30	0.394200	0.714300	0.571800
C711	C71	0.402300	0.692900	0.478600
C721	C72	0.460500	0.724600	0.415600
C731	C73	0.485300	0.692300	0.326400
H571	H57	0.466800	0.647200	0.302000
C741	C74	0.537200	0.725500	0.272100
H581	H58	0.554500	0.701800	0.210500
N81	N8	0.565200	0.790800	0.302200
C751	C75	0.539700	0.824000	0.389500
H591	H59	0.557600	0.870200	0.410800
C761	C76	0.488100	0.792000	0.448800
H601	H60	0.471700	0.815500	0.511100
C771	C77	0.306500	0.643200	0.202300
H611	H61	0.348100	0.647700	0.239800
C781	C78	0.309000	0.630700	0.092900
H621	H62	0.351600	0.623400	0.059000
O311	O31	0.306400	0.616200	0.871500
C791	C79	0.194400	0.485600	0.383600
H631	H63	0.152700	0.509600	0.398500
C801	C80	0.191600	0.415500	0.341200
H641	H64	0.149300	0.392100	0.328800
O321	O32	0.195600	0.278400	0.249000
Cd91	Cd9	0.250000	0.145000	0.946830
N91	N9	0.250000	0.149000	0.755500
C811	C81	0.250000	0.128900	0.533900
C821	C82	0.250000	0.121500	0.415200
N101	N10	0.250000	0.020500	0.904300
C831	C83	0.250000	0.881100	0.817900
C841	C84	0.250000	0.805900	0.766600
O331	O33	0.250000	0.123400	0.122500
H651	H65	0.250000	0.068700	0.130400
Cd101	Cd10	0.250000	0.645000	0.446830
N111	N11	0.250000	0.649000	0.255500
C851	C85	0.250000	0.628900	0.033900
C861	C86	0.250000	0.621500	0.915200
N121	N12	0.250000	0.520500	0.404300
C871	C87	0.250000	0.381100	0.317900
C881	C88	0.250000	0.305900	0.266600
O341	O34	0.250000	0.623400	0.622500
H661	H66	0.250000	0.568700	0.630400
Cd111	Cd11	0.750000	0.855000	0.946830
N131	N13	0.750000	0.851000	0.755500
C891	C89	0.750000	0.871100	0.533900
C901	C90	0.750000	0.878500	0.415200
N141	N14	0.750000	0.979500	0.904300
C911	C91	0.750000	0.118900	0.817900
C921	C92	0.750000	0.194100	0.766600
O351	O35	0.750000	0.876600	0.122500
H671	H67	0.750000	0.931300	0.130400
Cd121	Cd12	0.750000	0.355000	0.446830
N151	N15	0.750000	0.351000	0.255500
C931	C93	0.750000	0.371100	0.033900
C941	C94	0.750000	0.378500	0.915200
N161	N16	0.750000	0.479500	0.404300
C951	C95	0.750000	0.618900	0.317900
C961	C96	0.750000	0.694100	0.266600
O361	O36	0.750000	0.376600	0.622500
H681	H68	0.750000	0.431300	0.630400
