data_UMALUQ_clean_PM
_symmetry_space_group_name_H-M	'P1'
_cell_length_a	36.461600
_cell_length_b	19.284100
_cell_length_c	16.067500
_cell_angle_alpha	90.000000
_cell_angle_beta	95.679000
_cell_angle_gamma	90.000000
_symmetry_Int_Tables_number 1

loop_
_symmetry_equiv_pos_as_xyz
'x,y,z'

loop_
_atom_site_label
_atom_site_type_symbol
_atom_site_fract_x
_atom_site_fract_y
_atom_site_fract_z
N11	N1	0.288810	0.138200	0.071100
N21	N2	0.297000	0.815100	0.399900
C11	C1	0.447400	0.937000	0.919000
H11	H1	0.438400	0.895500	0.938300
C21	C2	0.473300	0.937500	0.862600
H21	H2	0.482300	0.896000	0.843100
C31	C3	0.305600	0.091400	0.096000
C41	C4	0.315000	0.845400	0.359900
B11	B1	0.436600	0.841600	0.112200
H31	H3	0.447500	0.891100	0.091200
C51	C5	0.231700	0.200400	0.043000
H41	H4	0.219900	0.166700	0.072100
C61	C6	0.269200	0.195900	0.035500
B21	B2	0.389000	0.811000	0.076200
H51	H5	0.369700	0.840500	0.032500
C71	C7	0.287800	0.244600	0.993200
H61	H6	0.313000	0.240400	0.989300
C81	C8	0.273300	0.781900	0.451500
C91	C9	0.285900	0.764100	0.531300
H71	H7	0.310100	0.773700	0.551700
B31	B3	0.373400	0.754200	0.160200
H81	H8	0.344200	0.747600	0.170100
B41	B4	0.411600	0.749000	0.246400
H91	H9	0.406700	0.738600	0.311700
C101	C10	0.237500	0.768300	0.418300
H101	H10	0.229400	0.780600	0.363600
B51	B5	0.428700	0.771400	0.042100
H111	H11	0.434400	0.776900	0.976500
B61	B6	0.450900	0.803900	0.217700
H121	H12	0.470800	0.828500	0.264500
B71	B7	0.391400	0.720600	0.071000
H131	H13	0.372900	0.693100	0.023900
B81	B8	0.465000	0.767900	0.124700
H141	H14	0.494100	0.771700	0.113000
B91	B9	0.404200	0.683900	0.171200
H151	H15	0.394100	0.633000	0.189800
B101	B10	0.437700	0.693000	0.096800
H161	H16	0.449200	0.647600	0.066900
B111	B11	0.230400	0.951900	0.350400
H171	H17	0.243400	0.921500	0.403200
B121	B12	0.227600	0.920200	0.239300
H181	H18	0.238700	0.869800	0.221700
B131	B13	0.450300	0.712900	0.202200
H191	H19	0.470200	0.680300	0.240300
B141	B14	0.347200	0.951500	0.551200
H201	H20	0.323200	0.921100	0.525600
B151	B15	0.188200	0.925800	0.294600
H211	H21	0.175100	0.877300	0.311900
B161	B16	0.396100	0.921500	0.550100
H221	H22	0.403100	0.871300	0.523200
B171	B17	0.421400	0.953900	0.641800
H231	H23	0.444900	0.924200	0.672000
B181	B18	0.184900	0.954700	0.188500
H241	H24	0.169700	0.925600	0.137300
B191	B19	0.375200	0.924400	0.643500
H251	H25	0.368900	0.875600	0.674600
Sn11	Sn1	0.394520	0.862300	0.209300
Ag11	Ag1	0.342020	0.926400	0.297060
N31	N3	0.788810	0.638200	0.071100
N41	N4	0.797000	0.315100	0.399900
C111	C11	0.947400	0.437000	0.919000
H261	H26	0.938400	0.395500	0.938300
C121	C12	0.973300	0.437500	0.862600
H271	H27	0.982300	0.396000	0.843100
C131	C13	0.805600	0.591400	0.096000
C141	C14	0.815000	0.345400	0.359900
B201	B20	0.936600	0.341600	0.112200
H281	H28	0.947500	0.391100	0.091200
C151	C15	0.731700	0.700400	0.043000
H291	H29	0.719900	0.666700	0.072100
C161	C16	0.769200	0.695900	0.035500
B211	B21	0.889000	0.311000	0.076200
H301	H30	0.869700	0.340500	0.032500
C171	C17	0.787800	0.744600	0.993200
H311	H31	0.813000	0.740400	0.989300
C181	C18	0.773300	0.281900	0.451500
C191	C19	0.785900	0.264100	0.531300
H321	H32	0.810100	0.273700	0.551700
B221	B22	0.873400	0.254200	0.160200
H331	H33	0.844200	0.247600	0.170100
B231	B23	0.911600	0.249000	0.246400
H341	H34	0.906700	0.238600	0.311700
C201	C20	0.737500	0.268300	0.418300
H351	H35	0.729400	0.280600	0.363600
B241	B24	0.928700	0.271400	0.042100
H361	H36	0.934400	0.276900	0.976500
B251	B25	0.950900	0.303900	0.217700
H371	H37	0.970800	0.328500	0.264500
B261	B26	0.891400	0.220600	0.071000
H381	H38	0.872900	0.193100	0.023900
B271	B27	0.965000	0.267900	0.124700
H391	H39	0.994100	0.271700	0.113000
B281	B28	0.904200	0.183900	0.171200
H401	H40	0.894100	0.133000	0.189800
B291	B29	0.937700	0.193000	0.096800
H411	H41	0.949200	0.147600	0.066900
B301	B30	0.730400	0.451900	0.350400
H421	H42	0.743400	0.421500	0.403200
B311	B31	0.727600	0.420200	0.239300
H431	H43	0.738700	0.369800	0.221700
B321	B32	0.950300	0.212900	0.202200
H441	H44	0.970200	0.180300	0.240300
B331	B33	0.847200	0.451500	0.551200
H451	H45	0.823200	0.421100	0.525600
B341	B34	0.688200	0.425800	0.294600
H461	H46	0.675100	0.377300	0.311900
B351	B35	0.896100	0.421500	0.550100
H471	H47	0.903100	0.371300	0.523200
B361	B36	0.921400	0.453900	0.641800
H481	H48	0.944900	0.424200	0.672000
B371	B37	0.684900	0.454700	0.188500
H491	H49	0.669700	0.425600	0.137300
B381	B38	0.875200	0.424400	0.643500
H501	H50	0.868900	0.375600	0.674600
Sn21	Sn2	0.894520	0.362300	0.209300
Ag21	Ag2	0.842020	0.426400	0.297060
N51	N5	0.711190	0.138200	0.928900
N61	N6	0.703000	0.815100	0.600100
C211	C21	0.552600	0.937000	0.081000
H511	H51	0.561600	0.895500	0.061700
C221	C22	0.526700	0.937500	0.137400
H521	H52	0.517700	0.896000	0.156900
C231	C23	0.694400	0.091400	0.904000
C241	C24	0.685000	0.845400	0.640100
B391	B39	0.563400	0.841600	0.887800
H531	H53	0.552500	0.891100	0.908800
C251	C25	0.768300	0.200400	0.957000
H541	H54	0.780100	0.166700	0.927900
C261	C26	0.730800	0.195900	0.964500
B401	B40	0.611000	0.811000	0.923800
H551	H55	0.630300	0.840500	0.967500
C271	C27	0.712200	0.244600	0.006800
H561	H56	0.687000	0.240400	0.010700
C281	C28	0.726700	0.781900	0.548500
C291	C29	0.714100	0.764100	0.468700
H571	H57	0.689900	0.773700	0.448300
B411	B41	0.626600	0.754200	0.839800
H581	H58	0.655800	0.747600	0.829900
B421	B42	0.588400	0.749000	0.753600
H591	H59	0.593300	0.738600	0.688300
C301	C30	0.762500	0.768300	0.581700
H601	H60	0.770600	0.780600	0.636400
B431	B43	0.571300	0.771400	0.957900
H611	H61	0.565600	0.776900	0.023500
B441	B44	0.549100	0.803900	0.782300
H621	H62	0.529200	0.828500	0.735500
B451	B45	0.608600	0.720600	0.929000
H631	H63	0.627100	0.693100	0.976100
B461	B46	0.535000	0.767900	0.875300
H641	H64	0.505900	0.771700	0.887000
B471	B47	0.595800	0.683900	0.828800
H651	H65	0.605900	0.633000	0.810200
B481	B48	0.562300	0.693000	0.903200
H661	H66	0.550800	0.647600	0.933100
B491	B49	0.769600	0.951900	0.649600
H671	H67	0.756600	0.921500	0.596800
B501	B50	0.772400	0.920200	0.760700
H681	H68	0.761300	0.869800	0.778300
B511	B51	0.549700	0.712900	0.797800
H691	H69	0.529800	0.680300	0.759700
B521	B52	0.652800	0.951500	0.448800
H701	H70	0.676800	0.921100	0.474400
B531	B53	0.811800	0.925800	0.705400
H711	H71	0.824900	0.877300	0.688100
B541	B54	0.603900	0.921500	0.449900
H721	H72	0.596900	0.871300	0.476800
B551	B55	0.578600	0.953900	0.358200
H731	H73	0.555100	0.924200	0.328000
B561	B56	0.815100	0.954700	0.811500
H741	H74	0.830300	0.925600	0.862700
B571	B57	0.624800	0.924400	0.356500
H751	H75	0.631100	0.875600	0.325400
Sn31	Sn3	0.605480	0.862300	0.790700
Ag31	Ag3	0.657980	0.926400	0.702940
N71	N7	0.211190	0.638200	0.928900
N81	N8	0.203000	0.315100	0.600100
C311	C31	0.052600	0.437000	0.081000
H761	H76	0.061600	0.395500	0.061700
C321	C32	0.026700	0.437500	0.137400
H771	H77	0.017700	0.396000	0.156900
C331	C33	0.194400	0.591400	0.904000
C341	C34	0.185000	0.345400	0.640100
B581	B58	0.063400	0.341600	0.887800
H781	H78	0.052500	0.391100	0.908800
C351	C35	0.268300	0.700400	0.957000
H791	H79	0.280100	0.666700	0.927900
C361	C36	0.230800	0.695900	0.964500
B591	B59	0.111000	0.311000	0.923800
H801	H80	0.130300	0.340500	0.967500
C371	C37	0.212200	0.744600	0.006800
H811	H81	0.187000	0.740400	0.010700
C381	C38	0.226700	0.281900	0.548500
C391	C39	0.214100	0.264100	0.468700
H821	H82	0.189900	0.273700	0.448300
B601	B60	0.126600	0.254200	0.839800
H831	H83	0.155800	0.247600	0.829900
B611	B61	0.088400	0.249000	0.753600
H841	H84	0.093300	0.238600	0.688300
C401	C40	0.262500	0.268300	0.581700
H851	H85	0.270600	0.280600	0.636400
B621	B62	0.071300	0.271400	0.957900
H861	H86	0.065600	0.276900	0.023500
B631	B63	0.049100	0.303900	0.782300
H871	H87	0.029200	0.328500	0.735500
B641	B64	0.108600	0.220600	0.929000
H881	H88	0.127100	0.193100	0.976100
B651	B65	0.035000	0.267900	0.875300
H891	H89	0.005900	0.271700	0.887000
B661	B66	0.095800	0.183900	0.828800
H901	H90	0.105900	0.133000	0.810200
B671	B67	0.062300	0.193000	0.903200
H911	H91	0.050800	0.147600	0.933100
B681	B68	0.269600	0.451900	0.649600
H921	H92	0.256600	0.421500	0.596800
B691	B69	0.272400	0.420200	0.760700
H931	H93	0.261300	0.369800	0.778300
B701	B70	0.049700	0.212900	0.797800
H941	H94	0.029800	0.180300	0.759700
B711	B71	0.152800	0.451500	0.448800
H951	H95	0.176800	0.421100	0.474400
B721	B72	0.311800	0.425800	0.705400
H961	H96	0.324900	0.377300	0.688100
B731	B73	0.103900	0.421500	0.449900
H971	H97	0.096900	0.371300	0.476800
B741	B74	0.078600	0.453900	0.358200
H981	H98	0.055100	0.424200	0.328000
B751	B75	0.315100	0.454700	0.811500
H991	H99	0.330300	0.425600	0.862700
B761	B76	0.124800	0.424400	0.356500
H1001	H100	0.131100	0.375600	0.325400
Sn41	Sn4	0.105480	0.362300	0.790700
Ag41	Ag4	0.157980	0.426400	0.702940
N91	N9	0.711190	0.861800	0.928900
N101	N10	0.703000	0.184900	0.600100
C411	C41	0.552600	0.063000	0.081000
H1011	H101	0.561600	0.104500	0.061700
C421	C42	0.526700	0.062500	0.137400
H1021	H102	0.517700	0.104000	0.156900
C431	C43	0.694400	0.908600	0.904000
C441	C44	0.685000	0.154600	0.640100
B771	B77	0.563400	0.158400	0.887800
H1031	H103	0.552500	0.108900	0.908800
C451	C45	0.768300	0.799600	0.957000
H1041	H104	0.780100	0.833300	0.927900
C461	C46	0.730800	0.804100	0.964500
B781	B78	0.611000	0.189000	0.923800
H1051	H105	0.630300	0.159500	0.967500
C471	C47	0.712200	0.755400	0.006800
H1061	H106	0.687000	0.759600	0.010700
C481	C48	0.726700	0.218100	0.548500
C491	C49	0.714100	0.235900	0.468700
H1071	H107	0.689900	0.226300	0.448300
B791	B79	0.626600	0.245800	0.839800
H1081	H108	0.655800	0.252400	0.829900
B801	B80	0.588400	0.251000	0.753600
H1091	H109	0.593300	0.261400	0.688300
C501	C50	0.762500	0.231700	0.581700
H1101	H110	0.770600	0.219400	0.636400
B811	B81	0.571300	0.228600	0.957900
H1111	H111	0.565600	0.223100	0.023500
B821	B82	0.549100	0.196100	0.782300
H1121	H112	0.529200	0.171500	0.735500
B831	B83	0.608600	0.279400	0.929000
H1131	H113	0.627100	0.306900	0.976100
B841	B84	0.535000	0.232100	0.875300
H1141	H114	0.505900	0.228300	0.887000
B851	B85	0.595800	0.316100	0.828800
H1151	H115	0.605900	0.367000	0.810200
B861	B86	0.562300	0.307000	0.903200
H1161	H116	0.550800	0.352400	0.933100
B871	B87	0.769600	0.048100	0.649600
H1171	H117	0.756600	0.078500	0.596800
B881	B88	0.772400	0.079800	0.760700
H1181	H118	0.761300	0.130200	0.778300
B891	B89	0.549700	0.287100	0.797800
H1191	H119	0.529800	0.319700	0.759700
B901	B90	0.652800	0.048500	0.448800
H1201	H120	0.676800	0.078900	0.474400
B911	B91	0.811800	0.074200	0.705400
H1211	H121	0.824900	0.122700	0.688100
B921	B92	0.603900	0.078500	0.449900
H1221	H122	0.596900	0.128700	0.476800
B931	B93	0.578600	0.046100	0.358200
H1231	H123	0.555100	0.075800	0.328000
B941	B94	0.815100	0.045300	0.811500
H1241	H124	0.830300	0.074400	0.862700
B951	B95	0.624800	0.075600	0.356500
H1251	H125	0.631100	0.124400	0.325400
Sn51	Sn5	0.605480	0.137700	0.790700
Ag51	Ag5	0.657980	0.073600	0.702940
N111	N11	0.211190	0.361800	0.928900
N121	N12	0.203000	0.684900	0.600100
C511	C51	0.052600	0.563000	0.081000
H1261	H126	0.061600	0.604500	0.061700
C521	C52	0.026700	0.562500	0.137400
H1271	H127	0.017700	0.604000	0.156900
C531	C53	0.194400	0.408600	0.904000
C541	C54	0.185000	0.654600	0.640100
B961	B96	0.063400	0.658400	0.887800
H1281	H128	0.052500	0.608900	0.908800
C551	C55	0.268300	0.299600	0.957000
H1291	H129	0.280100	0.333300	0.927900
C561	C56	0.230800	0.304100	0.964500
B971	B97	0.111000	0.689000	0.923800
H1301	H130	0.130300	0.659500	0.967500
C571	C57	0.212200	0.255400	0.006800
H1311	H131	0.187000	0.259600	0.010700
C581	C58	0.226700	0.718100	0.548500
C591	C59	0.214100	0.735900	0.468700
H1321	H132	0.189900	0.726300	0.448300
B981	B98	0.126600	0.745800	0.839800
H1331	H133	0.155800	0.752400	0.829900
B991	B99	0.088400	0.751000	0.753600
H1341	H134	0.093300	0.761400	0.688300
C601	C60	0.262500	0.731700	0.581700
H1351	H135	0.270600	0.719400	0.636400
B1001	B100	0.071300	0.728600	0.957900
H1361	H136	0.065600	0.723100	0.023500
B1011	B101	0.049100	0.696100	0.782300
H1371	H137	0.029200	0.671500	0.735500
B1021	B102	0.108600	0.779400	0.929000
H1381	H138	0.127100	0.806900	0.976100
B1031	B103	0.035000	0.732100	0.875300
H1391	H139	0.005900	0.728300	0.887000
B1041	B104	0.095800	0.816100	0.828800
H1401	H140	0.105900	0.867000	0.810200
B1051	B105	0.062300	0.807000	0.903200
H1411	H141	0.050800	0.852400	0.933100
B1061	B106	0.269600	0.548100	0.649600
H1421	H142	0.256600	0.578500	0.596800
B1071	B107	0.272400	0.579800	0.760700
H1431	H143	0.261300	0.630200	0.778300
B1081	B108	0.049700	0.787100	0.797800
H1441	H144	0.029800	0.819700	0.759700
B1091	B109	0.152800	0.548500	0.448800
H1451	H145	0.176800	0.578900	0.474400
B1101	B110	0.311800	0.574200	0.705400
H1461	H146	0.324900	0.622700	0.688100
B1111	B111	0.103900	0.578500	0.449900
H1471	H147	0.096900	0.628700	0.476800
B1121	B112	0.078600	0.546100	0.358200
H1481	H148	0.055100	0.575800	0.328000
B1131	B113	0.315100	0.545300	0.811500
H1491	H149	0.330300	0.574400	0.862700
B1141	B114	0.124800	0.575600	0.356500
H1501	H150	0.131100	0.624400	0.325400
Sn61	Sn6	0.105480	0.637700	0.790700
Ag61	Ag6	0.157980	0.573600	0.702940
N131	N13	0.288810	0.861800	0.071100
N141	N14	0.297000	0.184900	0.399900
C611	C61	0.447400	0.063000	0.919000
H1511	H151	0.438400	0.104500	0.938300
C621	C62	0.473300	0.062500	0.862600
H1521	H152	0.482300	0.104000	0.843100
C631	C63	0.305600	0.908600	0.096000
C641	C64	0.315000	0.154600	0.359900
B1151	B115	0.436600	0.158400	0.112200
H1531	H153	0.447500	0.108900	0.091200
C651	C65	0.231700	0.799600	0.043000
H1541	H154	0.219900	0.833300	0.072100
C661	C66	0.269200	0.804100	0.035500
B1161	B116	0.389000	0.189000	0.076200
H1551	H155	0.369700	0.159500	0.032500
C671	C67	0.287800	0.755400	0.993200
H1561	H156	0.313000	0.759600	0.989300
C681	C68	0.273300	0.218100	0.451500
C691	C69	0.285900	0.235900	0.531300
H1571	H157	0.310100	0.226300	0.551700
B1171	B117	0.373400	0.245800	0.160200
H1581	H158	0.344200	0.252400	0.170100
B1181	B118	0.411600	0.251000	0.246400
H1591	H159	0.406700	0.261400	0.311700
C701	C70	0.237500	0.231700	0.418300
H1601	H160	0.229400	0.219400	0.363600
B1191	B119	0.428700	0.228600	0.042100
H1611	H161	0.434400	0.223100	0.976500
B1201	B120	0.450900	0.196100	0.217700
H1621	H162	0.470800	0.171500	0.264500
B1211	B121	0.391400	0.279400	0.071000
H1631	H163	0.372900	0.306900	0.023900
B1221	B122	0.465000	0.232100	0.124700
H1641	H164	0.494100	0.228300	0.113000
B1231	B123	0.404200	0.316100	0.171200
H1651	H165	0.394100	0.367000	0.189800
B1241	B124	0.437700	0.307000	0.096800
H1661	H166	0.449200	0.352400	0.066900
B1251	B125	0.230400	0.048100	0.350400
H1671	H167	0.243400	0.078500	0.403200
B1261	B126	0.227600	0.079800	0.239300
H1681	H168	0.238700	0.130200	0.221700
B1271	B127	0.450300	0.287100	0.202200
H1691	H169	0.470200	0.319700	0.240300
B1281	B128	0.347200	0.048500	0.551200
H1701	H170	0.323200	0.078900	0.525600
B1291	B129	0.188200	0.074200	0.294600
H1711	H171	0.175100	0.122700	0.311900
B1301	B130	0.396100	0.078500	0.550100
H1721	H172	0.403100	0.128700	0.523200
B1311	B131	0.421400	0.046100	0.641800
H1731	H173	0.444900	0.075800	0.672000
B1321	B132	0.184900	0.045300	0.188500
H1741	H174	0.169700	0.074400	0.137300
B1331	B133	0.375200	0.075600	0.643500
H1751	H175	0.368900	0.124400	0.674600
Sn71	Sn7	0.394520	0.137700	0.209300
Ag71	Ag7	0.342020	0.073600	0.297060
N151	N15	0.788810	0.361800	0.071100
N161	N16	0.797000	0.684900	0.399900
C711	C71	0.947400	0.563000	0.919000
H1761	H176	0.938400	0.604500	0.938300
C721	C72	0.973300	0.562500	0.862600
H1771	H177	0.982300	0.604000	0.843100
C731	C73	0.805600	0.408600	0.096000
C741	C74	0.815000	0.654600	0.359900
B1341	B134	0.936600	0.658400	0.112200
H1781	H178	0.947500	0.608900	0.091200
C751	C75	0.731700	0.299600	0.043000
H1791	H179	0.719900	0.333300	0.072100
C761	C76	0.769200	0.304100	0.035500
B1351	B135	0.889000	0.689000	0.076200
H1801	H180	0.869700	0.659500	0.032500
C771	C77	0.787800	0.255400	0.993200
H1811	H181	0.813000	0.259600	0.989300
C781	C78	0.773300	0.718100	0.451500
C791	C79	0.785900	0.735900	0.531300
H1821	H182	0.810100	0.726300	0.551700
B1361	B136	0.873400	0.745800	0.160200
H1831	H183	0.844200	0.752400	0.170100
B1371	B137	0.911600	0.751000	0.246400
H1841	H184	0.906700	0.761400	0.311700
C801	C80	0.737500	0.731700	0.418300
H1851	H185	0.729400	0.719400	0.363600
B1381	B138	0.928700	0.728600	0.042100
H1861	H186	0.934400	0.723100	0.976500
B1391	B139	0.950900	0.696100	0.217700
H1871	H187	0.970800	0.671500	0.264500
B1401	B140	0.891400	0.779400	0.071000
H1881	H188	0.872900	0.806900	0.023900
B1411	B141	0.965000	0.732100	0.124700
H1891	H189	0.994100	0.728300	0.113000
B1421	B142	0.904200	0.816100	0.171200
H1901	H190	0.894100	0.867000	0.189800
B1431	B143	0.937700	0.807000	0.096800
H1911	H191	0.949200	0.852400	0.066900
B1441	B144	0.730400	0.548100	0.350400
H1921	H192	0.743400	0.578500	0.403200
B1451	B145	0.727600	0.579800	0.239300
H1931	H193	0.738700	0.630200	0.221700
B1461	B146	0.950300	0.787100	0.202200
H1941	H194	0.970200	0.819700	0.240300
B1471	B147	0.847200	0.548500	0.551200
H1951	H195	0.823200	0.578900	0.525600
B1481	B148	0.688200	0.574200	0.294600
H1961	H196	0.675100	0.622700	0.311900
B1491	B149	0.896100	0.578500	0.550100
H1971	H197	0.903100	0.628700	0.523200
B1501	B150	0.921400	0.546100	0.641800
H1981	H198	0.944900	0.575800	0.672000
B1511	B151	0.684900	0.545300	0.188500
H1991	H199	0.669700	0.574400	0.137300
B1521	B152	0.875200	0.575600	0.643500
H2001	H200	0.868900	0.624400	0.674600
Sn81	Sn8	0.894520	0.637700	0.209300
Ag81	Ag8	0.842020	0.573600	0.297060
N171	N17	0.513600	0.000000	0.780400
N181	N18	0.407500	0.000000	0.003600
C811	C81	0.486000	0.000000	0.835200
C821	C82	0.537900	0.000000	0.741900
C831	C83	0.434900	0.000000	0.946000
C841	C84	0.386300	0.000000	0.050800
B1531	B153	0.225200	0.000000	0.168700
H2011	H201	0.235000	0.000000	0.106100
B1541	B154	0.426300	0.000000	0.549400
H2021	H202	0.452700	0.000000	0.521900
B1551	B155	0.189700	0.000000	0.360100
H2031	H203	0.177400	0.000000	0.419900
B1561	B156	0.346600	0.000000	0.644700
H2041	H204	0.321500	0.000000	0.677600
B1571	B157	0.162300	0.000000	0.264000
H2051	H205	0.132100	0.000000	0.262300
B1581	B158	0.390400	0.000000	0.700200
H2061	H206	0.393500	0.000000	0.769000
Sn91	Sn9	0.274780	0.000000	0.273720
Ag91	Ag9	0.340020	0.000000	0.128310
Ag101	Ag10	0.405300	0.000000	0.281580
Sn101	Sn10	0.377710	0.000000	0.444270
N191	N19	0.013600	0.500000	0.780400
N201	N20	0.907500	0.500000	0.003600
C851	C85	0.986000	0.500000	0.835200
C861	C86	0.037900	0.500000	0.741900
C871	C87	0.934900	0.500000	0.946000
C881	C88	0.886300	0.500000	0.050800
B1591	B159	0.725200	0.500000	0.168700
H2071	H207	0.735000	0.500000	0.106100
B1601	B160	0.926300	0.500000	0.549400
H2081	H208	0.952700	0.500000	0.521900
B1611	B161	0.689700	0.500000	0.360100
H2091	H209	0.677400	0.500000	0.419900
B1621	B162	0.846600	0.500000	0.644700
H2101	H210	0.821500	0.500000	0.677600
B1631	B163	0.662300	0.500000	0.264000
H2111	H211	0.632100	0.500000	0.262300
B1641	B164	0.890400	0.500000	0.700200
H2121	H212	0.893500	0.500000	0.769000
Sn111	Sn11	0.774780	0.500000	0.273720
Ag111	Ag11	0.840020	0.500000	0.128310
Ag121	Ag12	0.905300	0.500000	0.281580
Sn121	Sn12	0.877710	0.500000	0.444270
N211	N21	0.486400	0.000000	0.219600
N221	N22	0.592500	0.000000	0.996400
C891	C89	0.514000	0.000000	0.164800
C901	C90	0.462100	0.000000	0.258100
C911	C91	0.565100	0.000000	0.054000
C921	C92	0.613700	0.000000	0.949200
B1651	B165	0.774800	0.000000	0.831300
H2131	H213	0.765000	0.000000	0.893900
B1661	B166	0.573700	0.000000	0.450600
H2141	H214	0.547300	0.000000	0.478100
B1671	B167	0.810300	0.000000	0.639900
H2151	H215	0.822600	0.000000	0.580100
B1681	B168	0.653400	0.000000	0.355300
H2161	H216	0.678500	0.000000	0.322400
B1691	B169	0.837700	0.000000	0.736000
H2171	H217	0.867900	0.000000	0.737700
B1701	B170	0.609600	0.000000	0.299800
H2181	H218	0.606500	0.000000	0.231000
Sn131	Sn13	0.725220	0.000000	0.726280
Ag131	Ag13	0.659980	0.000000	0.871690
Ag141	Ag14	0.594700	0.000000	0.718420
Sn141	Sn14	0.622290	0.000000	0.555730
N231	N23	0.986400	0.500000	0.219600
N241	N24	0.092500	0.500000	0.996400
C931	C93	0.014000	0.500000	0.164800
C941	C94	0.962100	0.500000	0.258100
C951	C95	0.065100	0.500000	0.054000
C961	C96	0.113700	0.500000	0.949200
B1711	B171	0.274800	0.500000	0.831300
H2191	H219	0.265000	0.500000	0.893900
B1721	B172	0.073700	0.500000	0.450600
H2201	H220	0.047300	0.500000	0.478100
B1731	B173	0.310300	0.500000	0.639900
H2211	H221	0.322600	0.500000	0.580100
B1741	B174	0.153400	0.500000	0.355300
H2221	H222	0.178500	0.500000	0.322400
B1751	B175	0.337700	0.500000	0.736000
H2231	H223	0.367900	0.500000	0.737700
B1761	B176	0.109600	0.500000	0.299800
H2241	H224	0.106500	0.500000	0.231000
Sn151	Sn15	0.225220	0.500000	0.726280
Ag151	Ag15	0.159980	0.500000	0.871690
Ag161	Ag16	0.094700	0.500000	0.718420
Sn161	Sn16	0.122290	0.500000	0.555730
