data_UMAROR_clean_PM
_symmetry_space_group_name_H-M	'P1'
_cell_length_a	9.178000
_cell_length_b	11.148000
_cell_length_c	14.337000
_cell_angle_alpha	88.191000
_cell_angle_beta	78.882000
_cell_angle_gamma	77.968000
_symmetry_Int_Tables_number 1

loop_
_symmetry_equiv_pos_as_xyz
'x,y,z'

loop_
_atom_site_label
_atom_site_type_symbol
_atom_site_fract_x
_atom_site_fract_y
_atom_site_fract_z
Ag11	Ag1	0.046700	0.988100	0.389240
Ag21	Ag2	0.108120	0.166790	0.251140
Ag31	Ag3	0.108860	0.973570	0.060150
Ag41	Ag4	0.302380	0.002730	0.495350
C11	C1	0.318500	0.906400	0.231500
C21	C2	0.462200	0.824500	0.181600
C31	C3	0.543900	0.735100	0.232500
H11	H1	0.509200	0.726100	0.297200
C41	C4	0.676300	0.659900	0.187300
H21	H2	0.730500	0.601200	0.222100
C51	C5	0.513500	0.835100	0.086100
H31	H3	0.459000	0.893900	0.051600
C61	C6	0.646300	0.758800	0.040200
H41	H4	0.679500	0.766800	0.975300
C71	C7	0.729800	0.670600	0.090800
C81	C8	0.870200	0.586000	0.043100
C91	C9	0.877500	0.460100	0.050700
H51	H5	0.794300	0.432700	0.085500
C101	C10	0.997100	0.625800	0.991000
C111	C11	0.006400	0.759700	0.986200
C121	C12	0.794100	0.230900	0.377800
C131	C13	0.633400	0.299600	0.410700
C141	C14	0.547300	0.271700	0.495300
H61	H6	0.592600	0.217900	0.537300
C151	C15	0.394200	0.323000	0.518000
H71	H7	0.337300	0.302500	0.575000
C161	C16	0.567100	0.386800	0.352500
H81	H8	0.625300	0.409800	0.297000
C171	C17	0.413800	0.440100	0.376700
H91	H9	0.370800	0.500700	0.338200
C181	C18	0.324400	0.404300	0.457300
C191	C19	0.157700	0.452500	0.477900
C201	C20	0.055800	0.373800	0.501700
C211	C21	0.900700	0.422300	0.523500
H101	H10	0.834100	0.369200	0.539600
C221	C22	0.108000	0.236400	0.501400
O11	O1	0.273300	0.886400	0.317100
O21	O2	0.255400	0.990500	0.182900
O31	O3	0.096300	0.788800	0.030700
O41	O4	0.929300	0.828400	0.938200
O51	O5	0.839400	0.137400	0.425100
O61	O6	0.870000	0.266800	0.305800
O71	O7	0.070600	0.183300	0.577600
O81	O8	0.186200	0.184900	0.427300
Ag51	Ag5	0.953300	0.011900	0.610760
Ag61	Ag6	0.891880	0.833210	0.748860
Ag71	Ag7	0.891140	0.026430	0.939850
Ag81	Ag8	0.697620	0.997270	0.504650
C231	C23	0.681500	0.093600	0.768500
C241	C24	0.537800	0.175500	0.818400
C251	C25	0.456100	0.264900	0.767500
H111	H11	0.490800	0.273900	0.702800
C261	C26	0.323700	0.340100	0.812700
H121	H12	0.269500	0.398800	0.777900
C271	C27	0.486500	0.164900	0.913900
H131	H13	0.541000	0.106100	0.948400
C281	C28	0.353700	0.241200	0.959800
H141	H14	0.320500	0.233200	0.024700
C291	C29	0.270200	0.329400	0.909200
C301	C30	0.129800	0.414000	0.956900
C311	C31	0.122500	0.539900	0.949300
H151	H15	0.205700	0.567300	0.914500
C321	C32	0.002900	0.374200	0.009000
C331	C33	0.993600	0.240300	0.013800
C341	C34	0.205900	0.769100	0.622200
C351	C35	0.366600	0.700400	0.589300
C361	C36	0.452700	0.728300	0.504700
H161	H16	0.407400	0.782100	0.462700
C371	C37	0.605800	0.677000	0.482000
H171	H17	0.662700	0.697500	0.425000
C381	C38	0.432900	0.613200	0.647500
H181	H18	0.374700	0.590200	0.703000
C391	C39	0.586200	0.559900	0.623300
H191	H19	0.629200	0.499300	0.661800
C401	C40	0.675600	0.595700	0.542700
C411	C41	0.842300	0.547500	0.522100
C421	C42	0.944200	0.626200	0.498300
C431	C43	0.099300	0.577700	0.476500
H201	H20	0.165900	0.630800	0.460400
C441	C44	0.892000	0.763600	0.498600
O91	O9	0.726700	0.113600	0.682900
O101	O10	0.744600	0.009500	0.817100
O111	O11	0.903700	0.211200	0.969300
O121	O12	0.070700	0.171600	0.061800
O131	O13	0.160600	0.862600	0.574900
O141	O14	0.130000	0.733200	0.694200
O151	O15	0.929400	0.816700	0.422400
O161	O16	0.813800	0.815100	0.572700
