data_UMEDEX_clean_PM
_symmetry_space_group_name_H-M	'P1'
_cell_length_a	34.592200
_cell_length_b	14.814100
_cell_length_c	31.426600
_cell_angle_alpha	90.000000
_cell_angle_beta	100.790000
_cell_angle_gamma	90.000000
_symmetry_Int_Tables_number 1

loop_
_symmetry_equiv_pos_as_xyz
'x,y,z'

loop_
_atom_site_label
_atom_site_type_symbol
_atom_site_fract_x
_atom_site_fract_y
_atom_site_fract_z
I11	I1	0.267220	0.241140	0.208940
I21	I2	0.374690	0.165480	0.302990
I31	I3	0.107190	0.265180	0.101460
I41	I4	0.474380	0.341490	0.372690
I51	I5	0.148930	0.400680	0.990420
I61	I6	0.374130	0.265320	0.437760
Zn11	Zn1	0.126970	0.405590	0.062640
Zn21	Zn2	0.413550	0.378470	0.403570
Zn31	Zn3	0.328910	0.146960	0.229150
N11	N1	0.316800	0.010400	0.222200
N21	N2	0.266400	0.691300	0.187600
C11	C1	0.310100	0.595300	0.249900
N31	N3	0.426500	0.483800	0.447300
N41	N4	0.423800	0.721200	0.559700
C21	C2	0.260800	0.605600	0.193200
N51	N5	0.376700	0.448800	0.355300
C31	C3	0.516400	0.893800	0.555400
N61	N6	0.475400	0.769100	0.525800
N71	N7	0.320500	0.680200	0.247100
N81	N8	0.580500	0.006700	0.557600
C41	C4	0.286900	0.975900	0.194400
H11	H1	0.269600	0.015800	0.176400
C51	C5	0.297000	0.727500	0.216100
C61	C6	0.446500	0.711700	0.530100
N91	N9	0.168900	0.471800	0.106200
C71	C7	0.332900	0.542200	0.286500
C81	C8	0.350900	0.774500	0.650200
H21	H2	0.327100	0.741700	0.648700
C91	C9	0.440100	0.632300	0.501100
N101	N10	0.460400	0.850200	0.585500
C101	C10	0.565700	0.993800	0.592700
H31	H3	0.576600	0.026000	0.618300
N111	N11	0.279800	0.553000	0.225100
C111	C11	0.407000	0.805000	0.619600
C121	C12	0.344900	0.408600	0.331100
H41	H4	0.337300	0.349900	0.338400
C131	C13	0.304100	0.824300	0.216000
C141	C14	0.482000	0.834300	0.554800
N121	N12	0.360500	0.833000	0.680500
C151	C15	0.366600	0.581100	0.312300
H51	H5	0.374600	0.640800	0.307200
C161	C16	0.431400	0.792700	0.585100
C171	C17	0.228100	0.559700	0.162400
C181	C18	0.340700	0.951800	0.247300
H61	H6	0.362000	0.975100	0.267800
C191	C19	0.323500	0.452700	0.295800
H71	H7	0.302400	0.422600	0.277600
C201	C20	0.374500	0.757500	0.619000
H81	H8	0.367200	0.712000	0.597800
C211	C21	0.467200	0.605200	0.476500
H91	H9	0.490900	0.638700	0.478100
C221	C22	0.565400	0.961300	0.522800
H101	H10	0.577300	0.968000	0.498100
C231	C23	0.279900	0.885100	0.190700
H111	H11	0.258100	0.863600	0.170200
C241	C24	0.461000	0.532400	0.450200
H121	H12	0.480200	0.514600	0.433900
C251	C25	0.181800	0.551900	0.098100
H131	H13	0.170200	0.578600	0.071300
C261	C26	0.399600	0.509500	0.470100
H141	H14	0.375900	0.476000	0.467900
C271	C27	0.335600	0.859600	0.244500
H151	H15	0.353800	0.820700	0.262200
C281	C28	0.187100	0.434000	0.144300
H161	H16	0.178500	0.376200	0.151600
C291	C29	0.387000	0.529600	0.344900
H171	H17	0.410500	0.554300	0.361300
C301	C30	0.405500	0.584200	0.496900
H181	H18	0.385800	0.602500	0.512400
C311	C31	0.210800	0.602200	0.125000
H191	H19	0.218000	0.661500	0.117900
C321	C32	0.216000	0.472700	0.171400
H201	H20	0.228500	0.441900	0.196800
C331	C33	0.533500	0.904400	0.519400
H211	H21	0.523600	0.873500	0.493100
C341	C34	0.534400	0.934600	0.593800
H221	H22	0.525800	0.922500	0.620200
C351	C35	0.391400	0.882000	0.679200
H231	H23	0.396000	0.931500	0.698700
C361	C36	0.417200	0.869000	0.653300
H241	H24	0.441300	0.901200	0.657300
H251	H25	0.489100	0.763700	0.505000
H261	H26	0.273000	0.496800	0.229300
I71	I7	0.767220	0.741140	0.208940
I81	I8	0.874690	0.665480	0.302990
I91	I9	0.607190	0.765180	0.101460
I101	I10	0.974380	0.841490	0.372690
I111	I11	0.648930	0.900680	0.990420
I121	I12	0.874130	0.765320	0.437760
Zn41	Zn4	0.626970	0.905590	0.062640
Zn51	Zn5	0.913550	0.878470	0.403570
Zn61	Zn6	0.828910	0.646960	0.229150
N131	N13	0.816800	0.510400	0.222200
N141	N14	0.766400	0.191300	0.187600
C371	C37	0.810100	0.095300	0.249900
N151	N15	0.926500	0.983800	0.447300
N161	N16	0.923800	0.221200	0.559700
C381	C38	0.760800	0.105600	0.193200
N171	N17	0.876700	0.948800	0.355300
C391	C39	0.016400	0.393800	0.555400
N181	N18	0.975400	0.269100	0.525800
N191	N19	0.820500	0.180200	0.247100
N201	N20	0.080500	0.506700	0.557600
C401	C40	0.786900	0.475900	0.194400
H271	H27	0.769600	0.515800	0.176400
C411	C41	0.797000	0.227500	0.216100
C421	C42	0.946500	0.211700	0.530100
N211	N21	0.668900	0.971800	0.106200
C431	C43	0.832900	0.042200	0.286500
C441	C44	0.850900	0.274500	0.650200
H281	H28	0.827100	0.241700	0.648700
C451	C45	0.940100	0.132300	0.501100
N221	N22	0.960400	0.350200	0.585500
C461	C46	0.065700	0.493800	0.592700
H291	H29	0.076600	0.526000	0.618300
N231	N23	0.779800	0.053000	0.225100
C471	C47	0.907000	0.305000	0.619600
C481	C48	0.844900	0.908600	0.331100
H301	H30	0.837300	0.849900	0.338400
C491	C49	0.804100	0.324300	0.216000
C501	C50	0.982000	0.334300	0.554800
N241	N24	0.860500	0.333000	0.680500
C511	C51	0.866600	0.081100	0.312300
H311	H31	0.874600	0.140800	0.307200
C521	C52	0.931400	0.292700	0.585100
C531	C53	0.728100	0.059700	0.162400
C541	C54	0.840700	0.451800	0.247300
H321	H32	0.862000	0.475100	0.267800
C551	C55	0.823500	0.952700	0.295800
H331	H33	0.802400	0.922600	0.277600
C561	C56	0.874500	0.257500	0.619000
H341	H34	0.867200	0.212000	0.597800
C571	C57	0.967200	0.105200	0.476500
H351	H35	0.990900	0.138700	0.478100
C581	C58	0.065400	0.461300	0.522800
H361	H36	0.077300	0.468000	0.498100
C591	C59	0.779900	0.385100	0.190700
H371	H37	0.758100	0.363600	0.170200
C601	C60	0.961000	0.032400	0.450200
H381	H38	0.980200	0.014600	0.433900
C611	C61	0.681800	0.051900	0.098100
H391	H39	0.670200	0.078600	0.071300
C621	C62	0.899600	0.009500	0.470100
H401	H40	0.875900	0.976000	0.467900
C631	C63	0.835600	0.359600	0.244500
H411	H41	0.853800	0.320700	0.262200
C641	C64	0.687100	0.934000	0.144300
H421	H42	0.678500	0.876200	0.151600
C651	C65	0.887000	0.029600	0.344900
H431	H43	0.910500	0.054300	0.361300
C661	C66	0.905500	0.084200	0.496900
H441	H44	0.885800	0.102500	0.512400
C671	C67	0.710800	0.102200	0.125000
H451	H45	0.718000	0.161500	0.117900
C681	C68	0.716000	0.972700	0.171400
H461	H46	0.728500	0.941900	0.196800
C691	C69	0.033500	0.404400	0.519400
H471	H47	0.023600	0.373500	0.493100
C701	C70	0.034400	0.434600	0.593800
H481	H48	0.025800	0.422500	0.620200
C711	C71	0.891400	0.382000	0.679200
H491	H49	0.896000	0.431500	0.698700
C721	C72	0.917200	0.369000	0.653300
H501	H50	0.941300	0.401200	0.657300
H511	H51	0.989100	0.263700	0.505000
H521	H52	0.773000	0.996800	0.229300
I131	I13	0.267220	0.758860	0.708940
I141	I14	0.374690	0.834520	0.802990
I151	I15	0.107190	0.734820	0.601460
I161	I16	0.474380	0.658510	0.872690
I171	I17	0.148930	0.599320	0.490420
I181	I18	0.374130	0.734680	0.937760
Zn71	Zn7	0.126970	0.594410	0.562640
Zn81	Zn8	0.413550	0.621530	0.903570
Zn91	Zn9	0.328910	0.853040	0.729150
N251	N25	0.316800	0.989600	0.722200
N261	N26	0.266400	0.308700	0.687600
C731	C73	0.310100	0.404700	0.749900
N271	N27	0.426500	0.516200	0.947300
N281	N28	0.423800	0.278800	0.059700
C741	C74	0.260800	0.394400	0.693200
N291	N29	0.376700	0.551200	0.855300
C751	C75	0.516400	0.106200	0.055400
N301	N30	0.475400	0.230900	0.025800
N311	N31	0.320500	0.319800	0.747100
N321	N32	0.580500	0.993300	0.057600
C761	C76	0.286900	0.024100	0.694400
H531	H53	0.269600	0.984200	0.676400
C771	C77	0.297000	0.272500	0.716100
C781	C78	0.446500	0.288300	0.030100
N331	N33	0.168900	0.528200	0.606200
C791	C79	0.332900	0.457800	0.786500
C801	C80	0.350900	0.225500	0.150200
H541	H54	0.327100	0.258300	0.148700
C811	C81	0.440100	0.367700	0.001100
N341	N34	0.460400	0.149800	0.085500
C821	C82	0.565700	0.006200	0.092700
H551	H55	0.576600	0.974000	0.118300
N351	N35	0.279800	0.447000	0.725100
C831	C83	0.407000	0.195000	0.119600
C841	C84	0.344900	0.591400	0.831100
H561	H56	0.337300	0.650100	0.838400
C851	C85	0.304100	0.175700	0.716000
C861	C86	0.482000	0.165700	0.054800
N361	N36	0.360500	0.167000	0.180500
C871	C87	0.366600	0.418900	0.812300
H571	H57	0.374600	0.359200	0.807200
C881	C88	0.431400	0.207300	0.085100
C891	C89	0.228100	0.440300	0.662400
C901	C90	0.340700	0.048200	0.747300
H581	H58	0.362000	0.024900	0.767800
C911	C91	0.323500	0.547300	0.795800
H591	H59	0.302400	0.577400	0.777600
C921	C92	0.374500	0.242500	0.119000
H601	H60	0.367200	0.288000	0.097800
C931	C93	0.467200	0.394800	0.976500
H611	H61	0.490900	0.361300	0.978100
C941	C94	0.565400	0.038700	0.022800
H621	H62	0.577300	0.032000	0.998100
C951	C95	0.279900	0.114900	0.690700
H631	H63	0.258100	0.136400	0.670200
C961	C96	0.461000	0.467600	0.950200
H641	H64	0.480200	0.485400	0.933900
C971	C97	0.181800	0.448100	0.598100
H651	H65	0.170200	0.421400	0.571300
C981	C98	0.399600	0.490500	0.970100
H661	H66	0.375900	0.524000	0.967900
C991	C99	0.335600	0.140400	0.744500
H671	H67	0.353800	0.179300	0.762200
C1001	C100	0.187100	0.566000	0.644300
H681	H68	0.178500	0.623800	0.651600
C1011	C101	0.387000	0.470400	0.844900
H691	H69	0.410500	0.445700	0.861300
C1021	C102	0.405500	0.415800	0.996900
H701	H70	0.385800	0.397500	0.012400
C1031	C103	0.210800	0.397800	0.625000
H711	H71	0.218000	0.338500	0.617900
C1041	C104	0.216000	0.527300	0.671400
H721	H72	0.228500	0.558100	0.696800
C1051	C105	0.533500	0.095600	0.019400
H731	H73	0.523600	0.126500	0.993100
C1061	C106	0.534400	0.065400	0.093800
H741	H74	0.525800	0.077500	0.120200
C1071	C107	0.391400	0.118000	0.179200
H751	H75	0.396000	0.068500	0.198700
C1081	C108	0.417200	0.131000	0.153300
H761	H76	0.441300	0.098800	0.157300
H771	H77	0.489100	0.236300	0.005000
H781	H78	0.273000	0.503200	0.729300
I191	I19	0.767220	0.258860	0.708940
I201	I20	0.874690	0.334520	0.802990
I211	I21	0.607190	0.234820	0.601460
I221	I22	0.974380	0.158510	0.872690
I231	I23	0.648930	0.099320	0.490420
I241	I24	0.874130	0.234680	0.937760
Zn101	Zn10	0.626970	0.094410	0.562640
Zn111	Zn11	0.913550	0.121530	0.903570
Zn121	Zn12	0.828910	0.353040	0.729150
N371	N37	0.816800	0.489600	0.722200
N381	N38	0.766400	0.808700	0.687600
C1091	C109	0.810100	0.904700	0.749900
N391	N39	0.926500	0.016200	0.947300
N401	N40	0.923800	0.778800	0.059700
C1101	C110	0.760800	0.894400	0.693200
N411	N41	0.876700	0.051200	0.855300
C1111	C111	0.016400	0.606200	0.055400
N421	N42	0.975400	0.730900	0.025800
N431	N43	0.820500	0.819800	0.747100
N441	N44	0.080500	0.493300	0.057600
C1121	C112	0.786900	0.524100	0.694400
H791	H79	0.769600	0.484200	0.676400
C1131	C113	0.797000	0.772500	0.716100
C1141	C114	0.946500	0.788300	0.030100
N451	N45	0.668900	0.028200	0.606200
C1151	C115	0.832900	0.957800	0.786500
C1161	C116	0.850900	0.725500	0.150200
H801	H80	0.827100	0.758300	0.148700
C1171	C117	0.940100	0.867700	0.001100
N461	N46	0.960400	0.649800	0.085500
C1181	C118	0.065700	0.506200	0.092700
H811	H81	0.076600	0.474000	0.118300
N471	N47	0.779800	0.947000	0.725100
C1191	C119	0.907000	0.695000	0.119600
C1201	C120	0.844900	0.091400	0.831100
H821	H82	0.837300	0.150100	0.838400
C1211	C121	0.804100	0.675700	0.716000
C1221	C122	0.982000	0.665700	0.054800
N481	N48	0.860500	0.667000	0.180500
C1231	C123	0.866600	0.918900	0.812300
H831	H83	0.874600	0.859200	0.807200
C1241	C124	0.931400	0.707300	0.085100
C1251	C125	0.728100	0.940300	0.662400
C1261	C126	0.840700	0.548200	0.747300
H841	H84	0.862000	0.524900	0.767800
C1271	C127	0.823500	0.047300	0.795800
H851	H85	0.802400	0.077400	0.777600
C1281	C128	0.874500	0.742500	0.119000
H861	H86	0.867200	0.788000	0.097800
C1291	C129	0.967200	0.894800	0.976500
H871	H87	0.990900	0.861300	0.978100
C1301	C130	0.065400	0.538700	0.022800
H881	H88	0.077300	0.532000	0.998100
C1311	C131	0.779900	0.614900	0.690700
H891	H89	0.758100	0.636400	0.670200
C1321	C132	0.961000	0.967600	0.950200
H901	H90	0.980200	0.985400	0.933900
C1331	C133	0.681800	0.948100	0.598100
H911	H91	0.670200	0.921400	0.571300
C1341	C134	0.899600	0.990500	0.970100
H921	H92	0.875900	0.024000	0.967900
C1351	C135	0.835600	0.640400	0.744500
H931	H93	0.853800	0.679300	0.762200
C1361	C136	0.687100	0.066000	0.644300
H941	H94	0.678500	0.123800	0.651600
C1371	C137	0.887000	0.970400	0.844900
H951	H95	0.910500	0.945700	0.861300
C1381	C138	0.905500	0.915800	0.996900
H961	H96	0.885800	0.897500	0.012400
C1391	C139	0.710800	0.897800	0.625000
H971	H97	0.718000	0.838500	0.617900
C1401	C140	0.716000	0.027300	0.671400
H981	H98	0.728500	0.058100	0.696800
C1411	C141	0.033500	0.595600	0.019400
H991	H99	0.023600	0.626500	0.993100
C1421	C142	0.034400	0.565400	0.093800
H1001	H100	0.025800	0.577500	0.120200
C1431	C143	0.891400	0.618000	0.179200
H1011	H101	0.896000	0.568500	0.198700
C1441	C144	0.917200	0.631000	0.153300
H1021	H102	0.941300	0.598800	0.157300
H1031	H103	0.989100	0.736300	0.005000
H1041	H104	0.773000	0.003200	0.729300
I251	I25	0.732780	0.241140	0.291060
I261	I26	0.625310	0.165480	0.197010
I271	I27	0.892810	0.265180	0.398540
I281	I28	0.525620	0.341490	0.127310
I291	I29	0.851070	0.400680	0.509580
I301	I30	0.625870	0.265320	0.062240
Zn131	Zn13	0.873030	0.405590	0.437360
Zn141	Zn14	0.586450	0.378470	0.096430
Zn151	Zn15	0.671090	0.146960	0.270850
N491	N49	0.683200	0.010400	0.277800
N501	N50	0.733600	0.691300	0.312400
C1451	C145	0.689900	0.595300	0.250100
N511	N51	0.573500	0.483800	0.052700
N521	N52	0.576200	0.721200	0.940300
C1461	C146	0.739200	0.605600	0.306800
N531	N53	0.623300	0.448800	0.144700
C1471	C147	0.483600	0.893800	0.944600
N541	N54	0.524600	0.769100	0.974200
N551	N55	0.679500	0.680200	0.252900
N561	N56	0.419500	0.006700	0.942400
C1481	C148	0.713100	0.975900	0.305600
H1051	H105	0.730400	0.015800	0.323600
C1491	C149	0.703000	0.727500	0.283900
C1501	C150	0.553500	0.711700	0.969900
N571	N57	0.831100	0.471800	0.393800
C1511	C151	0.667100	0.542200	0.213500
C1521	C152	0.649100	0.774500	0.849800
H1061	H106	0.672900	0.741700	0.851300
C1531	C153	0.559900	0.632300	0.998900
N581	N58	0.539600	0.850200	0.914500
C1541	C154	0.434300	0.993800	0.907300
H1071	H107	0.423400	0.026000	0.881700
N591	N59	0.720200	0.553000	0.274900
C1551	C155	0.593000	0.805000	0.880400
C1561	C156	0.655100	0.408600	0.168900
H1081	H108	0.662700	0.349900	0.161600
C1571	C157	0.695900	0.824300	0.284000
C1581	C158	0.518000	0.834300	0.945200
N601	N60	0.639500	0.833000	0.819500
C1591	C159	0.633400	0.581100	0.187700
H1091	H109	0.625400	0.640800	0.192800
C1601	C160	0.568600	0.792700	0.914900
C1611	C161	0.771900	0.559700	0.337600
C1621	C162	0.659300	0.951800	0.252700
H1101	H110	0.638000	0.975100	0.232200
C1631	C163	0.676500	0.452700	0.204200
H1111	H111	0.697600	0.422600	0.222400
C1641	C164	0.625500	0.757500	0.881000
H1121	H112	0.632800	0.712000	0.902200
C1651	C165	0.532800	0.605200	0.023500
H1131	H113	0.509100	0.638700	0.021900
C1661	C166	0.434600	0.961300	0.977200
H1141	H114	0.422700	0.968000	0.001900
C1671	C167	0.720100	0.885100	0.309300
H1151	H115	0.741900	0.863600	0.329800
C1681	C168	0.539000	0.532400	0.049800
H1161	H116	0.519800	0.514600	0.066100
C1691	C169	0.818200	0.551900	0.401900
H1171	H117	0.829800	0.578600	0.428700
C1701	C170	0.600400	0.509500	0.029900
H1181	H118	0.624100	0.476000	0.032100
C1711	C171	0.664400	0.859600	0.255500
H1191	H119	0.646200	0.820700	0.237800
C1721	C172	0.812900	0.434000	0.355700
H1201	H120	0.821500	0.376200	0.348400
C1731	C173	0.613000	0.529600	0.155100
H1211	H121	0.589500	0.554300	0.138700
C1741	C174	0.594500	0.584200	0.003100
H1221	H122	0.614200	0.602500	0.987600
C1751	C175	0.789200	0.602200	0.375000
H1231	H123	0.782000	0.661500	0.382100
C1761	C176	0.784000	0.472700	0.328600
H1241	H124	0.771500	0.441900	0.303200
C1771	C177	0.466500	0.904400	0.980600
H1251	H125	0.476400	0.873500	0.006900
C1781	C178	0.465600	0.934600	0.906200
H1261	H126	0.474200	0.922500	0.879800
C1791	C179	0.608600	0.882000	0.820800
H1271	H127	0.604000	0.931500	0.801300
C1801	C180	0.582800	0.869000	0.846700
H1281	H128	0.558700	0.901200	0.842700
H1291	H129	0.510900	0.763700	0.995000
H1301	H130	0.727000	0.496800	0.270700
I311	I31	0.232780	0.741140	0.291060
I321	I32	0.125310	0.665480	0.197010
I331	I33	0.392810	0.765180	0.398540
I341	I34	0.025620	0.841490	0.127310
I351	I35	0.351070	0.900680	0.509580
I361	I36	0.125870	0.765320	0.062240
Zn161	Zn16	0.373030	0.905590	0.437360
Zn171	Zn17	0.086450	0.878470	0.096430
Zn181	Zn18	0.171090	0.646960	0.270850
N611	N61	0.183200	0.510400	0.277800
N621	N62	0.233600	0.191300	0.312400
C1811	C181	0.189900	0.095300	0.250100
N631	N63	0.073500	0.983800	0.052700
N641	N64	0.076200	0.221200	0.940300
C1821	C182	0.239200	0.105600	0.306800
N651	N65	0.123300	0.948800	0.144700
C1831	C183	0.983600	0.393800	0.944600
N661	N66	0.024600	0.269100	0.974200
N671	N67	0.179500	0.180200	0.252900
N681	N68	0.919500	0.506700	0.942400
C1841	C184	0.213100	0.475900	0.305600
H1311	H131	0.230400	0.515800	0.323600
C1851	C185	0.203000	0.227500	0.283900
C1861	C186	0.053500	0.211700	0.969900
N691	N69	0.331100	0.971800	0.393800
C1871	C187	0.167100	0.042200	0.213500
C1881	C188	0.149100	0.274500	0.849800
H1321	H132	0.172900	0.241700	0.851300
C1891	C189	0.059900	0.132300	0.998900
N701	N70	0.039600	0.350200	0.914500
C1901	C190	0.934300	0.493800	0.907300
H1331	H133	0.923400	0.526000	0.881700
N711	N71	0.220200	0.053000	0.274900
C1911	C191	0.093000	0.305000	0.880400
C1921	C192	0.155100	0.908600	0.168900
H1341	H134	0.162700	0.849900	0.161600
C1931	C193	0.195900	0.324300	0.284000
C1941	C194	0.018000	0.334300	0.945200
N721	N72	0.139500	0.333000	0.819500
C1951	C195	0.133400	0.081100	0.187700
H1351	H135	0.125400	0.140800	0.192800
C1961	C196	0.068600	0.292700	0.914900
C1971	C197	0.271900	0.059700	0.337600
C1981	C198	0.159300	0.451800	0.252700
H1361	H136	0.138000	0.475100	0.232200
C1991	C199	0.176500	0.952700	0.204200
H1371	H137	0.197600	0.922600	0.222400
C2001	C200	0.125500	0.257500	0.881000
H1381	H138	0.132800	0.212000	0.902200
C2011	C201	0.032800	0.105200	0.023500
H1391	H139	0.009100	0.138700	0.021900
C2021	C202	0.934600	0.461300	0.977200
H1401	H140	0.922700	0.468000	0.001900
C2031	C203	0.220100	0.385100	0.309300
H1411	H141	0.241900	0.363600	0.329800
C2041	C204	0.039000	0.032400	0.049800
H1421	H142	0.019800	0.014600	0.066100
C2051	C205	0.318200	0.051900	0.401900
H1431	H143	0.329800	0.078600	0.428700
C2061	C206	0.100400	0.009500	0.029900
H1441	H144	0.124100	0.976000	0.032100
C2071	C207	0.164400	0.359600	0.255500
H1451	H145	0.146200	0.320700	0.237800
C2081	C208	0.312900	0.934000	0.355700
H1461	H146	0.321500	0.876200	0.348400
C2091	C209	0.113000	0.029600	0.155100
H1471	H147	0.089500	0.054300	0.138700
C2101	C210	0.094500	0.084200	0.003100
H1481	H148	0.114200	0.102500	0.987600
C2111	C211	0.289200	0.102200	0.375000
H1491	H149	0.282000	0.161500	0.382100
C2121	C212	0.284000	0.972700	0.328600
H1501	H150	0.271500	0.941900	0.303200
C2131	C213	0.966500	0.404400	0.980600
H1511	H151	0.976400	0.373500	0.006900
C2141	C214	0.965600	0.434600	0.906200
H1521	H152	0.974200	0.422500	0.879800
C2151	C215	0.108600	0.382000	0.820800
H1531	H153	0.104000	0.431500	0.801300
C2161	C216	0.082800	0.369000	0.846700
H1541	H154	0.058700	0.401200	0.842700
H1551	H155	0.010900	0.263700	0.995000
H1561	H156	0.227000	0.996800	0.270700
I371	I37	0.732780	0.758860	0.791060
I381	I38	0.625310	0.834520	0.697010
I391	I39	0.892810	0.734820	0.898540
I401	I40	0.525620	0.658510	0.627310
I411	I41	0.851070	0.599320	0.009580
I421	I42	0.625870	0.734680	0.562240
Zn191	Zn19	0.873030	0.594410	0.937360
Zn201	Zn20	0.586450	0.621530	0.596430
Zn211	Zn21	0.671090	0.853040	0.770850
N731	N73	0.683200	0.989600	0.777800
N741	N74	0.733600	0.308700	0.812400
C2171	C217	0.689900	0.404700	0.750100
N751	N75	0.573500	0.516200	0.552700
N761	N76	0.576200	0.278800	0.440300
C2181	C218	0.739200	0.394400	0.806800
N771	N77	0.623300	0.551200	0.644700
C2191	C219	0.483600	0.106200	0.444600
N781	N78	0.524600	0.230900	0.474200
N791	N79	0.679500	0.319800	0.752900
N801	N80	0.419500	0.993300	0.442400
C2201	C220	0.713100	0.024100	0.805600
H1571	H157	0.730400	0.984200	0.823600
C2211	C221	0.703000	0.272500	0.783900
C2221	C222	0.553500	0.288300	0.469900
N811	N81	0.831100	0.528200	0.893800
C2231	C223	0.667100	0.457800	0.713500
C2241	C224	0.649100	0.225500	0.349800
H1581	H158	0.672900	0.258300	0.351300
C2251	C225	0.559900	0.367700	0.498900
N821	N82	0.539600	0.149800	0.414500
C2261	C226	0.434300	0.006200	0.407300
H1591	H159	0.423400	0.974000	0.381700
N831	N83	0.720200	0.447000	0.774900
C2271	C227	0.593000	0.195000	0.380400
C2281	C228	0.655100	0.591400	0.668900
H1601	H160	0.662700	0.650100	0.661600
C2291	C229	0.695900	0.175700	0.784000
C2301	C230	0.518000	0.165700	0.445200
N841	N84	0.639500	0.167000	0.319500
C2311	C231	0.633400	0.418900	0.687700
H1611	H161	0.625400	0.359200	0.692800
C2321	C232	0.568600	0.207300	0.414900
C2331	C233	0.771900	0.440300	0.837600
C2341	C234	0.659300	0.048200	0.752700
H1621	H162	0.638000	0.024900	0.732200
C2351	C235	0.676500	0.547300	0.704200
H1631	H163	0.697600	0.577400	0.722400
C2361	C236	0.625500	0.242500	0.381000
H1641	H164	0.632800	0.288000	0.402200
C2371	C237	0.532800	0.394800	0.523500
H1651	H165	0.509100	0.361300	0.521900
C2381	C238	0.434600	0.038700	0.477200
H1661	H166	0.422700	0.032000	0.501900
C2391	C239	0.720100	0.114900	0.809300
H1671	H167	0.741900	0.136400	0.829800
C2401	C240	0.539000	0.467600	0.549800
H1681	H168	0.519800	0.485400	0.566100
C2411	C241	0.818200	0.448100	0.901900
H1691	H169	0.829800	0.421400	0.928700
C2421	C242	0.600400	0.490500	0.529900
H1701	H170	0.624100	0.524000	0.532100
C2431	C243	0.664400	0.140400	0.755500
H1711	H171	0.646200	0.179300	0.737800
C2441	C244	0.812900	0.566000	0.855700
H1721	H172	0.821500	0.623800	0.848400
C2451	C245	0.613000	0.470400	0.655100
H1731	H173	0.589500	0.445700	0.638700
C2461	C246	0.594500	0.415800	0.503100
H1741	H174	0.614200	0.397500	0.487600
C2471	C247	0.789200	0.397800	0.875000
H1751	H175	0.782000	0.338500	0.882100
C2481	C248	0.784000	0.527300	0.828600
H1761	H176	0.771500	0.558100	0.803200
C2491	C249	0.466500	0.095600	0.480600
H1771	H177	0.476400	0.126500	0.506900
C2501	C250	0.465600	0.065400	0.406200
H1781	H178	0.474200	0.077500	0.379800
C2511	C251	0.608600	0.118000	0.320800
H1791	H179	0.604000	0.068500	0.301300
C2521	C252	0.582800	0.131000	0.346700
H1801	H180	0.558700	0.098800	0.342700
H1811	H181	0.510900	0.236300	0.495000
H1821	H182	0.727000	0.503200	0.770700
I431	I43	0.232780	0.258860	0.791060
I441	I44	0.125310	0.334520	0.697010
I451	I45	0.392810	0.234820	0.898540
I461	I46	0.025620	0.158510	0.627310
I471	I47	0.351070	0.099320	0.009580
I481	I48	0.125870	0.234680	0.562240
Zn221	Zn22	0.373030	0.094410	0.937360
Zn231	Zn23	0.086450	0.121530	0.596430
Zn241	Zn24	0.171090	0.353040	0.770850
N851	N85	0.183200	0.489600	0.777800
N861	N86	0.233600	0.808700	0.812400
C2531	C253	0.189900	0.904700	0.750100
N871	N87	0.073500	0.016200	0.552700
N881	N88	0.076200	0.778800	0.440300
C2541	C254	0.239200	0.894400	0.806800
N891	N89	0.123300	0.051200	0.644700
C2551	C255	0.983600	0.606200	0.444600
N901	N90	0.024600	0.730900	0.474200
N911	N91	0.179500	0.819800	0.752900
N921	N92	0.919500	0.493300	0.442400
C2561	C256	0.213100	0.524100	0.805600
H1831	H183	0.230400	0.484200	0.823600
C2571	C257	0.203000	0.772500	0.783900
C2581	C258	0.053500	0.788300	0.469900
N931	N93	0.331100	0.028200	0.893800
C2591	C259	0.167100	0.957800	0.713500
C2601	C260	0.149100	0.725500	0.349800
H1841	H184	0.172900	0.758300	0.351300
C2611	C261	0.059900	0.867700	0.498900
N941	N94	0.039600	0.649800	0.414500
C2621	C262	0.934300	0.506200	0.407300
H1851	H185	0.923400	0.474000	0.381700
N951	N95	0.220200	0.947000	0.774900
C2631	C263	0.093000	0.695000	0.380400
C2641	C264	0.155100	0.091400	0.668900
H1861	H186	0.162700	0.150100	0.661600
C2651	C265	0.195900	0.675700	0.784000
C2661	C266	0.018000	0.665700	0.445200
N961	N96	0.139500	0.667000	0.319500
C2671	C267	0.133400	0.918900	0.687700
H1871	H187	0.125400	0.859200	0.692800
C2681	C268	0.068600	0.707300	0.414900
C2691	C269	0.271900	0.940300	0.837600
C2701	C270	0.159300	0.548200	0.752700
H1881	H188	0.138000	0.524900	0.732200
C2711	C271	0.176500	0.047300	0.704200
H1891	H189	0.197600	0.077400	0.722400
C2721	C272	0.125500	0.742500	0.381000
H1901	H190	0.132800	0.788000	0.402200
C2731	C273	0.032800	0.894800	0.523500
H1911	H191	0.009100	0.861300	0.521900
C2741	C274	0.934600	0.538700	0.477200
H1921	H192	0.922700	0.532000	0.501900
C2751	C275	0.220100	0.614900	0.809300
H1931	H193	0.241900	0.636400	0.829800
C2761	C276	0.039000	0.967600	0.549800
H1941	H194	0.019800	0.985400	0.566100
C2771	C277	0.318200	0.948100	0.901900
H1951	H195	0.329800	0.921400	0.928700
C2781	C278	0.100400	0.990500	0.529900
H1961	H196	0.124100	0.024000	0.532100
C2791	C279	0.164400	0.640400	0.755500
H1971	H197	0.146200	0.679300	0.737800
C2801	C280	0.312900	0.066000	0.855700
H1981	H198	0.321500	0.123800	0.848400
C2811	C281	0.113000	0.970400	0.655100
H1991	H199	0.089500	0.945700	0.638700
C2821	C282	0.094500	0.915800	0.503100
H2001	H200	0.114200	0.897500	0.487600
C2831	C283	0.289200	0.897800	0.875000
H2011	H201	0.282000	0.838500	0.882100
C2841	C284	0.284000	0.027300	0.828600
H2021	H202	0.271500	0.058100	0.803200
C2851	C285	0.966500	0.595600	0.480600
H2031	H203	0.976400	0.626500	0.506900
C2861	C286	0.965600	0.565400	0.406200
H2041	H204	0.974200	0.577500	0.379800
C2871	C287	0.108600	0.618000	0.320800
H2051	H205	0.104000	0.568500	0.301300
C2881	C288	0.082800	0.631000	0.346700
H2061	H206	0.058700	0.598800	0.342700
H2071	H207	0.010900	0.736300	0.495000
H2081	H208	0.227000	0.003200	0.770700
