data_UMEHOL_clean_PM
_symmetry_space_group_name_H-M	'P1'
_cell_length_a	17.335800
_cell_length_b	11.634800
_cell_length_c	18.319800
_cell_angle_alpha	90.000000
_cell_angle_beta	110.426000
_cell_angle_gamma	90.000000
_symmetry_Int_Tables_number 1

loop_
_symmetry_equiv_pos_as_xyz
'x,y,z'

loop_
_atom_site_label
_atom_site_type_symbol
_atom_site_fract_x
_atom_site_fract_y
_atom_site_fract_z
Dy11	Dy1	0.998960	0.083250	0.094590
Dy21	Dy2	0.502380	0.569610	0.399040
S11	S1	0.244760	0.707430	0.110320
S21	S2	0.250280	0.205190	0.410120
S31	S3	0.264390	0.726600	0.559350
O11	O1	0.405330	0.582000	0.163940
O21	O2	0.100800	0.066300	0.351630
O31	O3	0.404770	0.537300	0.282220
O41	O4	0.077880	0.090500	0.225070
O51	O5	0.079970	0.946500	0.493540
O61	O6	0.408300	0.586400	0.559280
O71	O7	0.071600	0.910600	0.124570
O81	O8	0.422350	0.671600	0.454770
O91	O9	0.423800	0.432300	0.433590
O101	O10	0.082770	0.821800	0.019590
C11	C1	0.116100	0.111200	0.295200
C21	C2	0.375700	0.587100	0.216100
O111	O11	0.395780	0.315400	0.515940
O121	O12	0.116280	0.817900	0.587560
C31	C3	0.186100	0.192500	0.314400
C41	C4	0.299300	0.653900	0.202200
C51	C5	0.174500	0.773200	0.144400
C61	C6	0.201500	0.839000	0.511900
C71	C7	0.323600	0.742700	0.501700
C81	C8	0.264100	0.685900	0.255200
H11	H1	0.284500	0.664200	0.307400
C91	C9	0.104200	0.840700	0.091800
C101	C10	0.193400	0.755700	0.222400
H21	H2	0.163200	0.786300	0.250900
C111	C11	0.390400	0.660100	0.506100
C121	C12	0.309000	0.306700	0.385200
C131	C13	0.380100	0.354800	0.447900
C141	C14	0.128700	0.869000	0.532000
C151	C15	0.226700	0.886900	0.455400
H31	H3	0.200500	0.948400	0.424200
C161	C16	0.209600	0.263700	0.266700
H41	H4	0.182200	0.268400	0.213200
C171	C17	0.279900	0.329400	0.307100
H51	H5	0.303700	0.382300	0.283300
C181	C18	0.296700	0.832000	0.450300
H61	H6	0.322200	0.853900	0.415500
Dy31	Dy3	0.001040	0.083250	0.405410
Dy41	Dy4	0.497620	0.569610	0.100960
S41	S4	0.755240	0.707430	0.389680
S51	S5	0.749720	0.205190	0.089880
S61	S6	0.735610	0.726600	0.940650
O131	O13	0.594670	0.582000	0.336060
O141	O14	0.899200	0.066300	0.148370
O151	O15	0.595230	0.537300	0.217780
O161	O16	0.922120	0.090500	0.274930
O171	O17	0.920030	0.946500	0.006460
O181	O18	0.591700	0.586400	0.940720
O191	O19	0.928400	0.910600	0.375430
O201	O20	0.577650	0.671600	0.045230
O211	O21	0.576200	0.432300	0.066410
O221	O22	0.917230	0.821800	0.480410
C191	C19	0.883900	0.111200	0.204800
C201	C20	0.624300	0.587100	0.283900
O231	O23	0.604220	0.315400	0.984060
O241	O24	0.883720	0.817900	0.912440
C211	C21	0.813900	0.192500	0.185600
C221	C22	0.700700	0.653900	0.297800
C231	C23	0.825500	0.773200	0.355600
C241	C24	0.798500	0.839000	0.988100
C251	C25	0.676400	0.742700	0.998300
C261	C26	0.735900	0.685900	0.244800
H71	H7	0.715500	0.664200	0.192600
C271	C27	0.895800	0.840700	0.408200
C281	C28	0.806600	0.755700	0.277600
H81	H8	0.836800	0.786300	0.249100
C291	C29	0.609600	0.660100	0.993900
C301	C30	0.691000	0.306700	0.114800
C311	C31	0.619900	0.354800	0.052100
C321	C32	0.871300	0.869000	0.968000
C331	C33	0.773300	0.886900	0.044600
H91	H9	0.799500	0.948400	0.075800
C341	C34	0.790400	0.263700	0.233300
H101	H10	0.817800	0.268400	0.286800
C351	C35	0.720100	0.329400	0.192900
H111	H11	0.696300	0.382300	0.216700
C361	C36	0.703300	0.832000	0.049700
H121	H12	0.677800	0.853900	0.084500
Dy51	Dy5	0.001040	0.916750	0.905410
Dy61	Dy6	0.497620	0.430390	0.600960
S71	S7	0.755240	0.292570	0.889680
S81	S8	0.749720	0.794810	0.589880
S91	S9	0.735610	0.273400	0.440650
O251	O25	0.594670	0.418000	0.836060
O261	O26	0.899200	0.933700	0.648370
O271	O27	0.595230	0.462700	0.717780
O281	O28	0.922120	0.909500	0.774930
O291	O29	0.920030	0.053500	0.506460
O301	O30	0.591700	0.413600	0.440720
O311	O31	0.928400	0.089400	0.875430
O321	O32	0.577650	0.328400	0.545230
O331	O33	0.576200	0.567700	0.566410
O341	O34	0.917230	0.178200	0.980410
C371	C37	0.883900	0.888800	0.704800
C381	C38	0.624300	0.412900	0.783900
O351	O35	0.604220	0.684600	0.484060
O361	O36	0.883720	0.182100	0.412440
C391	C39	0.813900	0.807500	0.685600
C401	C40	0.700700	0.346100	0.797800
C411	C41	0.825500	0.226800	0.855600
C421	C42	0.798500	0.161000	0.488100
C431	C43	0.676400	0.257300	0.498300
C441	C44	0.735900	0.314100	0.744800
H131	H13	0.715500	0.335800	0.692600
C451	C45	0.895800	0.159300	0.908200
C461	C46	0.806600	0.244300	0.777600
H141	H14	0.836800	0.213700	0.749100
C471	C47	0.609600	0.339900	0.493900
C481	C48	0.691000	0.693300	0.614800
C491	C49	0.619900	0.645200	0.552100
C501	C50	0.871300	0.131000	0.468000
C511	C51	0.773300	0.113100	0.544600
H151	H15	0.799500	0.051600	0.575800
C521	C52	0.790400	0.736300	0.733300
H161	H16	0.817800	0.731600	0.786800
C531	C53	0.720100	0.670600	0.692900
H171	H17	0.696300	0.617700	0.716700
C541	C54	0.703300	0.168000	0.549700
H181	H18	0.677800	0.146100	0.584500
Dy71	Dy7	0.998960	0.916750	0.594590
Dy81	Dy8	0.502380	0.430390	0.899040
S101	S10	0.244760	0.292570	0.610320
S111	S11	0.250280	0.794810	0.910120
S121	S12	0.264390	0.273400	0.059350
O371	O37	0.405330	0.418000	0.663940
O381	O38	0.100800	0.933700	0.851630
O391	O39	0.404770	0.462700	0.782220
O401	O40	0.077880	0.909500	0.725070
O411	O41	0.079970	0.053500	0.993540
O421	O42	0.408300	0.413600	0.059280
O431	O43	0.071600	0.089400	0.624570
O441	O44	0.422350	0.328400	0.954770
O451	O45	0.423800	0.567700	0.933590
O461	O46	0.082770	0.178200	0.519590
C551	C55	0.116100	0.888800	0.795200
C561	C56	0.375700	0.412900	0.716100
O471	O47	0.395780	0.684600	0.015940
O481	O48	0.116280	0.182100	0.087560
C571	C57	0.186100	0.807500	0.814400
C581	C58	0.299300	0.346100	0.702200
C591	C59	0.174500	0.226800	0.644400
C601	C60	0.201500	0.161000	0.011900
C611	C61	0.323600	0.257300	0.001700
C621	C62	0.264100	0.314100	0.755200
H191	H19	0.284500	0.335800	0.807400
C631	C63	0.104200	0.159300	0.591800
C641	C64	0.193400	0.244300	0.722400
H201	H20	0.163200	0.213700	0.750900
C651	C65	0.390400	0.339900	0.006100
C661	C66	0.309000	0.693300	0.885200
C671	C67	0.380100	0.645200	0.947900
C681	C68	0.128700	0.131000	0.032000
C691	C69	0.226700	0.113100	0.955400
H211	H21	0.200500	0.051600	0.924200
C701	C70	0.209600	0.736300	0.766700
H221	H22	0.182200	0.731600	0.713200
C711	C71	0.279900	0.670600	0.807100
H231	H23	0.303700	0.617700	0.783300
C721	C72	0.296700	0.168000	0.950300
H241	H24	0.322200	0.146100	0.915500
