data_UMEKEE_clean_PM
_symmetry_space_group_name_H-M	'P1'
_cell_length_a	31.928000
_cell_length_b	16.003000
_cell_length_c	10.329000
_cell_angle_alpha	90.000000
_cell_angle_beta	90.000000
_cell_angle_gamma	90.000000
_symmetry_Int_Tables_number 1

loop_
_symmetry_equiv_pos_as_xyz
'x,y,z'

loop_
_atom_site_label
_atom_site_type_symbol
_atom_site_fract_x
_atom_site_fract_y
_atom_site_fract_z
Zn11	Zn1	0.293470	0.057920	0.398590
N11	N1	0.283110	0.180300	0.408000
C11	C1	0.376370	0.044300	0.481500
O11	O1	0.363580	0.080900	0.583500
C21	C2	0.422130	0.022100	0.467600
N21	N2	0.247100	0.209000	0.346100
H11	H1	0.354100	0.201300	0.526400
C31	C3	0.437790	0.994800	0.349600
H21	H2	0.419700	0.987700	0.279800
N31	N3	0.260390	0.003800	0.540400
C41	C4	0.448740	0.033000	0.570500
H31	H3	0.438100	0.052100	0.648900
N41	N4	0.226780	0.954800	0.514400
C51	C5	0.492340	0.014900	0.559600
N51	N5	0.207560	0.936400	0.621600
C61	C6	0.519880	0.022400	0.664300
H41	H4	0.509700	0.038800	0.744700
N61	N6	0.228300	0.973400	0.723300
N71	N7	0.288570	0.063800	0.736100
H51	H5	0.285600	0.070600	0.822100
H61	H6	0.309700	0.089100	0.694100
C71	C7	0.260990	0.014400	0.669900
O21	O2	0.352610	0.026600	0.385700
Zn21	Zn2	0.206530	0.942080	0.898590
N81	N8	0.216890	0.819700	0.908000
C81	C8	0.123630	0.955700	0.981500
O31	O3	0.136420	0.919100	0.083500
C91	C9	0.077870	0.977900	0.967600
N91	N9	0.252900	0.791000	0.846100
H71	H7	0.145900	0.798700	0.026400
C101	C10	0.062210	0.005200	0.849600
H81	H8	0.080300	0.012300	0.779800
N101	N10	0.239610	0.996200	0.040400
C111	C11	0.051260	0.967000	0.070500
H91	H9	0.061900	0.947900	0.148900
N111	N11	0.273220	0.045200	0.014400
C121	C12	0.007660	0.985100	0.059600
N121	N12	0.292440	0.063600	0.121600
C131	C13	0.980120	0.977600	0.164300
H101	H10	0.990300	0.961200	0.244700
N131	N13	0.271700	0.026600	0.223300
N141	N14	0.211430	0.936200	0.236100
H111	H11	0.214400	0.929400	0.322100
H121	H12	0.190300	0.910900	0.194100
C141	C14	0.239010	0.985600	0.169900
O41	O4	0.147390	0.973400	0.885700
Zn31	Zn3	0.706530	0.557920	0.601410
N151	N15	0.716890	0.680300	0.592000
C151	C15	0.623630	0.544300	0.518500
O51	O5	0.636420	0.580900	0.416500
C161	C16	0.577870	0.522100	0.532400
N161	N16	0.752900	0.709000	0.653900
H131	H13	0.645900	0.701300	0.473600
C171	C17	0.562210	0.494800	0.650400
H141	H14	0.580300	0.487700	0.720200
N171	N17	0.739610	0.503800	0.459600
C181	C18	0.551260	0.533000	0.429500
H151	H15	0.561900	0.552100	0.351100
N181	N18	0.773220	0.454800	0.485600
C191	C19	0.507660	0.514900	0.440400
N191	N19	0.792440	0.436400	0.378400
C201	C20	0.480120	0.522400	0.335700
H161	H16	0.490300	0.538800	0.255300
N201	N20	0.771700	0.473400	0.276700
N211	N21	0.711430	0.563800	0.263900
H171	H17	0.714400	0.570600	0.177900
H181	H18	0.690300	0.589100	0.305900
C211	C21	0.739010	0.514400	0.330100
O61	O6	0.647390	0.526600	0.614300
Zn41	Zn4	0.793470	0.442080	0.101410
N221	N22	0.783110	0.319700	0.092000
C221	C22	0.876370	0.455700	0.018500
O71	O7	0.863580	0.419100	0.916500
C231	C23	0.922130	0.477900	0.032400
N231	N23	0.747100	0.291000	0.153900
H191	H19	0.854100	0.298700	0.973600
C241	C24	0.937790	0.505200	0.150400
H201	H20	0.919700	0.512300	0.220200
N241	N24	0.760390	0.496200	0.959600
C251	C25	0.948740	0.467000	0.929500
H211	H21	0.938100	0.447900	0.851100
N251	N25	0.726780	0.545200	0.985600
C261	C26	0.992340	0.485100	0.940400
N261	N26	0.707560	0.563600	0.878400
C271	C27	0.019880	0.477600	0.835700
H221	H22	0.009700	0.461200	0.755300
N271	N27	0.728300	0.526600	0.776700
N281	N28	0.788570	0.436200	0.763900
H231	H23	0.785600	0.429400	0.677900
H241	H24	0.809700	0.410900	0.805900
C281	C28	0.760990	0.485600	0.830100
O81	O8	0.852610	0.473400	0.114300
Zn51	Zn5	0.706530	0.942080	0.601410
N291	N29	0.716890	0.819700	0.592000
C291	C29	0.623630	0.955700	0.518500
O91	O9	0.636420	0.919100	0.416500
C301	C30	0.577870	0.977900	0.532400
N301	N30	0.752900	0.791000	0.653900
H251	H25	0.645900	0.798700	0.473600
C311	C31	0.562210	0.005200	0.650400
H261	H26	0.580300	0.012300	0.720200
N311	N31	0.739610	0.996200	0.459600
C321	C32	0.551260	0.967000	0.429500
H271	H27	0.561900	0.947900	0.351100
N321	N32	0.773220	0.045200	0.485600
C331	C33	0.507660	0.985100	0.440400
N331	N33	0.792440	0.063600	0.378400
C341	C34	0.480120	0.977600	0.335700
H281	H28	0.490300	0.961200	0.255300
N341	N34	0.771700	0.026600	0.276700
N351	N35	0.711430	0.936200	0.263900
H291	H29	0.714400	0.929400	0.177900
H301	H30	0.690300	0.910900	0.305900
C351	C35	0.739010	0.985600	0.330100
O101	O10	0.647390	0.973400	0.614300
Zn61	Zn6	0.793470	0.057920	0.101410
N361	N36	0.783110	0.180300	0.092000
C361	C36	0.876370	0.044300	0.018500
O111	O11	0.863580	0.080900	0.916500
C371	C37	0.922130	0.022100	0.032400
N371	N37	0.747100	0.209000	0.153900
H311	H31	0.854100	0.201300	0.973600
C381	C38	0.937790	0.994800	0.150400
H321	H32	0.919700	0.987700	0.220200
N381	N38	0.760390	0.003800	0.959600
C391	C39	0.948740	0.033000	0.929500
H331	H33	0.938100	0.052100	0.851100
N391	N39	0.726780	0.954800	0.985600
C401	C40	0.992340	0.014900	0.940400
N401	N40	0.707560	0.936400	0.878400
C411	C41	0.019880	0.022400	0.835700
H341	H34	0.009700	0.038800	0.755300
N411	N41	0.728300	0.973400	0.776700
N421	N42	0.788570	0.063800	0.763900
H351	H35	0.785600	0.070600	0.677900
H361	H36	0.809700	0.089100	0.805900
C421	C42	0.760990	0.014400	0.830100
O121	O12	0.852610	0.026600	0.114300
Zn71	Zn7	0.293470	0.442080	0.398590
N431	N43	0.283110	0.319700	0.408000
C431	C43	0.376370	0.455700	0.481500
O131	O13	0.363580	0.419100	0.583500
C441	C44	0.422130	0.477900	0.467600
N441	N44	0.247100	0.291000	0.346100
H371	H37	0.354100	0.298700	0.526400
C451	C45	0.437790	0.505200	0.349600
H381	H38	0.419700	0.512300	0.279800
N451	N45	0.260390	0.496200	0.540400
C461	C46	0.448740	0.467000	0.570500
H391	H39	0.438100	0.447900	0.648900
N461	N46	0.226780	0.545200	0.514400
C471	C47	0.492340	0.485100	0.559600
N471	N47	0.207560	0.563600	0.621600
C481	C48	0.519880	0.477600	0.664300
H401	H40	0.509700	0.461200	0.744700
N481	N48	0.228300	0.526600	0.723300
N491	N49	0.288570	0.436200	0.736100
H411	H41	0.285600	0.429400	0.822100
H421	H42	0.309700	0.410900	0.694100
C491	C49	0.260990	0.485600	0.669900
O141	O14	0.352610	0.473400	0.385700
Zn81	Zn8	0.206530	0.557920	0.898590
N501	N50	0.216890	0.680300	0.908000
C501	C50	0.123630	0.544300	0.981500
O151	O15	0.136420	0.580900	0.083500
C511	C51	0.077870	0.522100	0.967600
N511	N51	0.252900	0.709000	0.846100
H431	H43	0.145900	0.701300	0.026400
C521	C52	0.062210	0.494800	0.849600
H441	H44	0.080300	0.487700	0.779800
N521	N52	0.239610	0.503800	0.040400
C531	C53	0.051260	0.533000	0.070500
H451	H45	0.061900	0.552100	0.148900
N531	N53	0.273220	0.454800	0.014400
C541	C54	0.007660	0.514900	0.059600
N541	N54	0.292440	0.436400	0.121600
C551	C55	0.980120	0.522400	0.164300
H461	H46	0.990300	0.538800	0.244700
N551	N55	0.271700	0.473400	0.223300
N561	N56	0.211430	0.563800	0.236100
H471	H47	0.214400	0.570600	0.322100
H481	H48	0.190300	0.589100	0.194100
C561	C56	0.239010	0.514400	0.169900
O161	O16	0.147390	0.526600	0.885700
N571	N57	0.341620	0.250000	0.506300
C571	C57	0.303710	0.250000	0.443600
N581	N58	0.158380	0.750000	0.006300
C581	C58	0.196290	0.750000	0.943600
N591	N59	0.658380	0.750000	0.493700
C591	C59	0.696290	0.750000	0.556400
N601	N60	0.841620	0.250000	0.993700
C601	C60	0.803710	0.250000	0.056400
