data_UMELAB_clean_PM
_symmetry_space_group_name_H-M	'P1'
_cell_length_a	50.641000
_cell_length_b	11.353000
_cell_length_c	17.527700
_cell_angle_alpha	90.000000
_cell_angle_beta	90.000000
_cell_angle_gamma	90.000000
_symmetry_Int_Tables_number 1

loop_
_symmetry_equiv_pos_as_xyz
'x,y,z'

loop_
_atom_site_label
_atom_site_type_symbol
_atom_site_fract_x
_atom_site_fract_y
_atom_site_fract_z
C11	C1	0.509820	0.573600	0.421800
C21	C2	0.498400	0.532900	0.349000
C31	C3	0.473910	0.558400	0.323000
H11	H1	0.461800	0.603700	0.349800
C41	C4	0.468820	0.508400	0.250400
H21	H2	0.452800	0.515200	0.224600
C51	C5	0.489860	0.450000	0.223200
C61	C6	0.491970	0.387300	0.149200
C71	C7	0.549320	0.821700	0.415500
C81	C8	0.545410	0.905100	0.350900
C91	C9	0.525310	0.981200	0.338400
H31	H3	0.511100	0.990900	0.371400
C101	C10	0.528350	0.044400	0.269100
H41	H4	0.516400	0.101000	0.252100
C111	C11	0.550120	0.014100	0.230700
C121	C12	0.558380	0.059200	0.155400
C131	C13	0.546720	0.856700	0.640300
C141	C14	0.556110	0.912500	0.711700
C151	C15	0.579470	0.898700	0.746700
H51	H5	0.593500	0.857300	0.725400
C161	C16	0.580610	0.953000	0.818700
H61	H6	0.595300	0.949900	0.850500
C171	C17	0.558250	0.009800	0.836500
C181	C18	0.551670	0.067700	0.910800
C191	C19	0.609770	0.530700	0.405500
C201	C20	0.604690	0.468800	0.332100
C211	C21	0.582580	0.409900	0.311800
H71	H7	0.567500	0.407200	0.342000
C221	C22	0.584580	0.353000	0.240700
H81	H8	0.571200	0.308000	0.218900
C231	C23	0.608680	0.372400	0.207900
C241	C24	0.619280	0.323300	0.135900
C251	C25	0.606660	0.517800	0.648400
C261	C26	0.614440	0.471100	0.724100
C271	C27	0.637490	0.495500	0.759800
H91	H9	0.650000	0.547100	0.740300
C281	C28	0.640700	0.435100	0.829700
H101	H10	0.655500	0.442700	0.860800
C291	C29	0.619880	0.365000	0.846300
C301	C30	0.617170	0.286400	0.912500
C311	C31	0.672440	0.866300	0.412800
C321	C32	0.662250	0.918400	0.340500
C331	C33	0.638150	0.895600	0.307600
H111	H11	0.625200	0.847800	0.329200
C341	C34	0.635400	0.954300	0.236200
H121	H12	0.620300	0.950300	0.206100
C351	C35	0.657130	0.016400	0.217200
C361	C36	0.661850	0.084800	0.147000
C371	C37	0.712630	0.579000	0.633100
C381	C38	0.722920	0.531000	0.705100
C391	C39	0.747620	0.540700	0.734500
H131	H13	0.761400	0.579600	0.710200
C401	C40	0.749930	0.484800	0.806000
H141	H14	0.765700	0.480800	0.833300
C411	C41	0.726970	0.437800	0.830800
C421	C42	0.721680	0.384300	0.905900
C431	C43	0.714380	0.621700	0.410900
C441	C44	0.711360	0.541800	0.345100
C451	C45	0.690060	0.472600	0.328600
H151	H15	0.675200	0.467000	0.359400
C461	C46	0.693250	0.410700	0.259800
H161	H16	0.680500	0.360700	0.239700
C471	C47	0.716840	0.431500	0.225700
C481	C48	0.725190	0.384600	0.149700
C491	C49	0.658920	0.041700	0.909400
C501	C50	0.668870	0.993800	0.835300
C511	C51	0.692910	0.014000	0.803400
H171	H17	0.705900	0.060700	0.825600
C521	C52	0.695980	0.955900	0.732700
H181	H18	0.711200	0.960100	0.703100
C531	C53	0.674070	0.892900	0.713000
C541	C54	0.669900	0.820800	0.644100
O11	O1	0.533250	0.544300	0.437700
O21	O2	0.494990	0.632700	0.463100
O31	O3	0.512250	0.331300	0.136200
O41	O4	0.472580	0.397200	0.104400
O51	O5	0.531350	0.808700	0.463300
O61	O6	0.570470	0.766700	0.419000
O71	O7	0.541910	0.115500	0.118800
O81	O8	0.581340	0.035700	0.133500
O91	O9	0.523020	0.868700	0.623600
O101	O10	0.564120	0.801300	0.603400
O111	O11	0.531680	0.132500	0.913800
O121	O12	0.566640	0.042900	0.965100
O131	O13	0.591830	0.522300	0.454700
O141	O14	0.631490	0.580500	0.414100
O151	O15	0.602830	0.266100	0.095000
O161	O16	0.643180	0.333500	0.121700
O171	O17	0.582930	0.528000	0.630800
O181	O18	0.625560	0.545700	0.606900
O191	O19	0.609410	0.744900	0.527000
O201	O20	0.636340	0.270500	0.956700
O211	O21	0.656160	0.812000	0.453100
O221	O22	0.696240	0.884900	0.427700
O231	O23	0.644350	0.084700	0.095500
O241	O24	0.682890	0.141200	0.139600
O251	O25	0.688510	0.563800	0.618600
O261	O26	0.728780	0.635200	0.592100
O271	O27	0.700620	0.331100	0.916400
O281	O28	0.739590	0.397500	0.954900
O291	O29	0.695280	0.634100	0.456000
O301	O30	0.735880	0.675200	0.418800
O311	O31	0.748670	0.374400	0.135200
O321	O32	0.706310	0.364000	0.105400
O331	O33	0.635430	0.020400	0.926400
O341	O34	0.675420	0.096600	0.948700
O351	O35	0.648150	0.770500	0.635700
O361	O36	0.688050	0.812100	0.596200
O371	O37	0.595360	0.235400	0.922600
S11	S1	0.515680	0.450450	0.285130
S21	S2	0.568200	0.910820	0.279180
S31	S3	0.535670	0.997800	0.765960
S41	S4	0.628410	0.459270	0.263190
S51	S5	0.595850	0.374570	0.777580
S61	S6	0.681290	0.007870	0.285140
S71	S7	0.702460	0.454820	0.765130
S81	S8	0.735640	0.527520	0.277820
S91	S9	0.649630	0.906120	0.779620
Sm11	Sm1	0.488780	0.806390	0.532420
Sm21	Sm2	0.562890	0.635350	0.525520
Sm31	Sm3	0.655780	0.635780	0.527060
Sm41	Sm4	0.726840	0.814700	0.523680
Sm51	Sm5	0.606020	0.089370	0.022280
Sm61	Sm6	0.676650	0.267120	0.027540
H191	H19	0.611800	0.776000	0.570000
H201	H20	0.608900	0.795000	0.492000
C551	C55	0.490180	0.426400	0.921800
C561	C56	0.501600	0.467100	0.849000
C571	C57	0.526090	0.441600	0.823000
H211	H21	0.538200	0.396300	0.849800
C581	C58	0.531180	0.491600	0.750400
H221	H22	0.547200	0.484800	0.724600
C591	C59	0.510140	0.550000	0.723200
C601	C60	0.508030	0.612700	0.649200
C611	C61	0.450680	0.178300	0.915500
C621	C62	0.454590	0.094900	0.850900
C631	C63	0.474690	0.018800	0.838400
H231	H23	0.488900	0.009100	0.871400
C641	C64	0.471650	0.955600	0.769100
H241	H24	0.483600	0.899000	0.752100
C651	C65	0.449880	0.985900	0.730700
C661	C66	0.441620	0.940800	0.655400
C671	C67	0.453280	0.143300	0.140300
C681	C68	0.443890	0.087500	0.211700
C691	C69	0.420530	0.101300	0.246700
H251	H25	0.406500	0.142700	0.225400
C701	C70	0.419390	0.047000	0.318700
H261	H26	0.404700	0.050100	0.350500
C711	C71	0.441750	0.990200	0.336500
C721	C72	0.448330	0.932300	0.410800
C731	C73	0.390230	0.469300	0.905500
C741	C74	0.395310	0.531200	0.832100
C751	C75	0.417420	0.590100	0.811800
H271	H27	0.432500	0.592800	0.842000
C761	C76	0.415420	0.647000	0.740700
H281	H28	0.428800	0.692000	0.718900
C771	C77	0.391320	0.627600	0.707900
C781	C78	0.380720	0.676700	0.635900
C791	C79	0.393340	0.482200	0.148400
C801	C80	0.385560	0.528900	0.224100
C811	C81	0.362510	0.504500	0.259800
H291	H29	0.350000	0.452900	0.240300
C821	C82	0.359300	0.564900	0.329700
H301	H30	0.344500	0.557300	0.360800
C831	C83	0.380120	0.635000	0.346300
C841	C84	0.382830	0.713600	0.412500
C851	C85	0.327560	0.133700	0.912800
C861	C86	0.337750	0.081600	0.840500
C871	C87	0.361850	0.104400	0.807600
H311	H31	0.374800	0.152200	0.829200
C881	C88	0.364600	0.045700	0.736200
H321	H32	0.379700	0.049700	0.706100
C891	C89	0.342870	0.983600	0.717200
C901	C90	0.338150	0.915200	0.647000
C911	C91	0.287370	0.421000	0.133100
C921	C92	0.277080	0.469000	0.205100
C931	C93	0.252380	0.459300	0.234500
H331	H33	0.238600	0.420400	0.210200
C941	C94	0.250070	0.515200	0.306000
H341	H34	0.234300	0.519200	0.333300
C951	C95	0.273030	0.562200	0.330800
C961	C96	0.278320	0.615700	0.405900
C971	C97	0.285620	0.378300	0.910900
C981	C98	0.288640	0.458200	0.845100
C991	C99	0.309940	0.527400	0.828600
H351	H35	0.324800	0.533000	0.859400
C1001	C100	0.306750	0.589300	0.759800
H361	H36	0.319500	0.639300	0.739700
C1011	C101	0.283160	0.568500	0.725700
C1021	C102	0.274810	0.615400	0.649700
C1031	C103	0.341080	0.958300	0.409400
C1041	C104	0.331130	0.006200	0.335300
C1051	C105	0.307090	0.986000	0.303400
H371	H37	0.294100	0.939300	0.325600
C1061	C106	0.304020	0.044100	0.232700
H381	H38	0.288800	0.039900	0.203100
C1071	C107	0.325930	0.107100	0.213000
C1081	C108	0.330100	0.179200	0.144100
O381	O38	0.466750	0.455700	0.937700
O391	O39	0.505010	0.367300	0.963100
O401	O40	0.487750	0.668700	0.636200
O411	O41	0.527420	0.602800	0.604400
O421	O42	0.468650	0.191300	0.963300
O431	O43	0.429530	0.233300	0.919000
O441	O44	0.458090	0.884500	0.618800
O451	O45	0.418660	0.964300	0.633500
O461	O46	0.476980	0.131300	0.123600
O471	O47	0.435880	0.198700	0.103400
O481	O48	0.468320	0.867500	0.413800
O491	O49	0.433360	0.957100	0.465100
O501	O50	0.408170	0.477700	0.954700
O511	O51	0.368510	0.419500	0.914100
O521	O52	0.397170	0.733900	0.595000
O531	O53	0.356820	0.666500	0.621700
O541	O54	0.417070	0.472000	0.130800
O551	O55	0.374440	0.454300	0.106900
O561	O56	0.390590	0.255100	0.027000
O571	O57	0.363660	0.729500	0.456700
O581	O58	0.343840	0.188000	0.953100
O591	O59	0.303760	0.115100	0.927700
O601	O60	0.355650	0.915300	0.595500
O611	O61	0.317110	0.858800	0.639600
O621	O62	0.311490	0.436200	0.118600
O631	O63	0.271220	0.364800	0.092100
O641	O64	0.299380	0.668900	0.416400
O651	O65	0.260410	0.602500	0.454900
O661	O66	0.304720	0.365900	0.956000
O671	O67	0.264120	0.324800	0.918800
O681	O68	0.251330	0.625600	0.635200
O691	O69	0.293690	0.636000	0.605400
O701	O70	0.364570	0.979600	0.426400
O711	O71	0.324580	0.903400	0.448700
O721	O72	0.351850	0.229500	0.135700
O731	O73	0.311950	0.187900	0.096200
O741	O74	0.404640	0.764600	0.422600
S101	S10	0.484320	0.549550	0.785130
S111	S11	0.431800	0.089180	0.779180
S121	S12	0.464330	0.002200	0.265960
S131	S13	0.371590	0.540730	0.763190
S141	S14	0.404150	0.625430	0.277580
S151	S15	0.318710	0.992130	0.785140
S161	S16	0.297540	0.545180	0.265130
S171	S17	0.264360	0.472480	0.777820
S181	S18	0.350370	0.093880	0.279620
Sm71	Sm7	0.511220	0.193610	0.032420
Sm81	Sm8	0.437110	0.364650	0.025520
Sm91	Sm9	0.344220	0.364220	0.027060
Sm101	Sm10	0.273160	0.185300	0.023680
Sm111	Sm11	0.393980	0.910630	0.522280
Sm121	Sm12	0.323350	0.732880	0.527540
H391	H39	0.388200	0.224000	0.070000
H401	H40	0.391100	0.205000	0.992000
C1091	C109	0.009820	0.926400	0.421800
C1101	C110	0.998400	0.967100	0.349000
C1111	C111	0.973910	0.941600	0.323000
H411	H41	0.961800	0.896300	0.349800
C1121	C112	0.968820	0.991600	0.250400
H421	H42	0.952800	0.984800	0.224600
C1131	C113	0.989860	0.050000	0.223200
C1141	C114	0.991970	0.112700	0.149200
C1151	C115	0.049320	0.678300	0.415500
C1161	C116	0.045410	0.594900	0.350900
C1171	C117	0.025310	0.518800	0.338400
H431	H43	0.011100	0.509100	0.371400
C1181	C118	0.028350	0.455600	0.269100
H441	H44	0.016400	0.399000	0.252100
C1191	C119	0.050120	0.485900	0.230700
C1201	C120	0.058380	0.440800	0.155400
C1211	C121	0.046720	0.643300	0.640300
C1221	C122	0.056110	0.587500	0.711700
C1231	C123	0.079470	0.601300	0.746700
H451	H45	0.093500	0.642700	0.725400
C1241	C124	0.080610	0.547000	0.818700
H461	H46	0.095300	0.550100	0.850500
C1251	C125	0.058250	0.490200	0.836500
C1261	C126	0.051670	0.432300	0.910800
C1271	C127	0.109770	0.969300	0.405500
C1281	C128	0.104690	0.031200	0.332100
C1291	C129	0.082580	0.090100	0.311800
H471	H47	0.067500	0.092800	0.342000
C1301	C130	0.084580	0.147000	0.240700
H481	H48	0.071200	0.192000	0.218900
C1311	C131	0.108680	0.127600	0.207900
C1321	C132	0.119280	0.176700	0.135900
C1331	C133	0.106660	0.982200	0.648400
C1341	C134	0.114440	0.028900	0.724100
C1351	C135	0.137490	0.004500	0.759800
H491	H49	0.150000	0.952900	0.740300
C1361	C136	0.140700	0.064900	0.829700
H501	H50	0.155500	0.057300	0.860800
C1371	C137	0.119880	0.135000	0.846300
C1381	C138	0.117170	0.213600	0.912500
C1391	C139	0.172440	0.633700	0.412800
C1401	C140	0.162250	0.581600	0.340500
C1411	C141	0.138150	0.604400	0.307600
H511	H51	0.125200	0.652200	0.329200
C1421	C142	0.135400	0.545700	0.236200
H521	H52	0.120300	0.549700	0.206100
C1431	C143	0.157130	0.483600	0.217200
C1441	C144	0.161850	0.415200	0.147000
C1451	C145	0.212630	0.921000	0.633100
C1461	C146	0.222920	0.969000	0.705100
C1471	C147	0.247620	0.959300	0.734500
H531	H53	0.261400	0.920400	0.710200
C1481	C148	0.249930	0.015200	0.806000
H541	H54	0.265700	0.019200	0.833300
C1491	C149	0.226970	0.062200	0.830800
C1501	C150	0.221680	0.115700	0.905900
C1511	C151	0.214380	0.878300	0.410900
C1521	C152	0.211360	0.958200	0.345100
C1531	C153	0.190060	0.027400	0.328600
H551	H55	0.175200	0.033000	0.359400
C1541	C154	0.193250	0.089300	0.259800
H561	H56	0.180500	0.139300	0.239700
C1551	C155	0.216840	0.068500	0.225700
C1561	C156	0.225190	0.115400	0.149700
C1571	C157	0.158920	0.458300	0.909400
C1581	C158	0.168870	0.506200	0.835300
C1591	C159	0.192910	0.486000	0.803400
H571	H57	0.205900	0.439300	0.825600
C1601	C160	0.195980	0.544100	0.732700
H581	H58	0.211200	0.539900	0.703100
C1611	C161	0.174070	0.607100	0.713000
C1621	C162	0.169900	0.679200	0.644100
O751	O75	0.033250	0.955700	0.437700
O761	O76	0.994990	0.867300	0.463100
O771	O77	0.012250	0.168700	0.136200
O781	O78	0.972580	0.102800	0.104400
O791	O79	0.031350	0.691300	0.463300
O801	O80	0.070470	0.733300	0.419000
O811	O81	0.041910	0.384500	0.118800
O821	O82	0.081340	0.464300	0.133500
O831	O83	0.023020	0.631300	0.623600
O841	O84	0.064120	0.698700	0.603400
O851	O85	0.031680	0.367500	0.913800
O861	O86	0.066640	0.457100	0.965100
O871	O87	0.091830	0.977700	0.454700
O881	O88	0.131490	0.919500	0.414100
O891	O89	0.102830	0.233900	0.095000
O901	O90	0.143180	0.166500	0.121700
O911	O91	0.082930	0.972000	0.630800
O921	O92	0.125560	0.954300	0.606900
O931	O93	0.109410	0.755100	0.527000
O941	O94	0.136340	0.229500	0.956700
O951	O95	0.156160	0.688000	0.453100
O961	O96	0.196240	0.615100	0.427700
O971	O97	0.144350	0.415300	0.095500
O981	O98	0.182890	0.358800	0.139600
O991	O99	0.188510	0.936200	0.618600
O1001	O100	0.228780	0.864800	0.592100
O1011	O101	0.200620	0.168900	0.916400
O1021	O102	0.239590	0.102500	0.954900
O1031	O103	0.195280	0.865900	0.456000
O1041	O104	0.235880	0.824800	0.418800
O1051	O105	0.248670	0.125600	0.135200
O1061	O106	0.206310	0.136000	0.105400
O1071	O107	0.135430	0.479600	0.926400
O1081	O108	0.175420	0.403400	0.948700
O1091	O109	0.148150	0.729500	0.635700
O1101	O110	0.188050	0.687900	0.596200
O1111	O111	0.095360	0.264600	0.922600
S191	S19	0.015680	0.049550	0.285130
S201	S20	0.068200	0.589180	0.279180
S211	S21	0.035670	0.502200	0.765960
S221	S22	0.128410	0.040730	0.263190
S231	S23	0.095850	0.125430	0.777580
S241	S24	0.181290	0.492130	0.285140
S251	S25	0.202460	0.045180	0.765130
S261	S26	0.235640	0.972480	0.277820
S271	S27	0.149630	0.593880	0.779620
Sm131	Sm13	0.988780	0.693610	0.532420
Sm141	Sm14	0.062890	0.864650	0.525520
Sm151	Sm15	0.155780	0.864220	0.527060
Sm161	Sm16	0.226840	0.685300	0.523680
Sm171	Sm17	0.106020	0.410630	0.022280
Sm181	Sm18	0.176650	0.232880	0.027540
H591	H59	0.111800	0.724000	0.570000
H601	H60	0.108900	0.705000	0.492000
C1631	C163	0.990180	0.073600	0.921800
C1641	C164	0.001600	0.032900	0.849000
C1651	C165	0.026090	0.058400	0.823000
H611	H61	0.038200	0.103700	0.849800
C1661	C166	0.031180	0.008400	0.750400
H621	H62	0.047200	0.015200	0.724600
C1671	C167	0.010140	0.950000	0.723200
C1681	C168	0.008030	0.887300	0.649200
C1691	C169	0.950680	0.321700	0.915500
C1701	C170	0.954590	0.405100	0.850900
C1711	C171	0.974690	0.481200	0.838400
H631	H63	0.988900	0.490900	0.871400
C1721	C172	0.971650	0.544400	0.769100
H641	H64	0.983600	0.601000	0.752100
C1731	C173	0.949880	0.514100	0.730700
C1741	C174	0.941620	0.559200	0.655400
C1751	C175	0.953280	0.356700	0.140300
C1761	C176	0.943890	0.412500	0.211700
C1771	C177	0.920530	0.398700	0.246700
H651	H65	0.906500	0.357300	0.225400
C1781	C178	0.919390	0.453000	0.318700
H661	H66	0.904700	0.449900	0.350500
C1791	C179	0.941750	0.509800	0.336500
C1801	C180	0.948330	0.567700	0.410800
C1811	C181	0.890230	0.030700	0.905500
C1821	C182	0.895310	0.968800	0.832100
C1831	C183	0.917420	0.909900	0.811800
H671	H67	0.932500	0.907200	0.842000
C1841	C184	0.915420	0.853000	0.740700
H681	H68	0.928800	0.808000	0.718900
C1851	C185	0.891320	0.872400	0.707900
C1861	C186	0.880720	0.823300	0.635900
C1871	C187	0.893340	0.017800	0.148400
C1881	C188	0.885560	0.971100	0.224100
C1891	C189	0.862510	0.995500	0.259800
H691	H69	0.850000	0.047100	0.240300
C1901	C190	0.859300	0.935100	0.329700
H701	H70	0.844500	0.942700	0.360800
C1911	C191	0.880120	0.865000	0.346300
C1921	C192	0.882830	0.786400	0.412500
C1931	C193	0.827560	0.366300	0.912800
C1941	C194	0.837750	0.418400	0.840500
C1951	C195	0.861850	0.395600	0.807600
H711	H71	0.874800	0.347800	0.829200
C1961	C196	0.864600	0.454300	0.736200
H721	H72	0.879700	0.450300	0.706100
C1971	C197	0.842870	0.516400	0.717200
C1981	C198	0.838150	0.584800	0.647000
C1991	C199	0.787370	0.079000	0.133100
C2001	C200	0.777080	0.031000	0.205100
C2011	C201	0.752380	0.040700	0.234500
H731	H73	0.738600	0.079600	0.210200
C2021	C202	0.750070	0.984800	0.306000
H741	H74	0.734300	0.980800	0.333300
C2031	C203	0.773030	0.937800	0.330800
C2041	C204	0.778320	0.884300	0.405900
C2051	C205	0.785620	0.121700	0.910900
C2061	C206	0.788640	0.041800	0.845100
C2071	C207	0.809940	0.972600	0.828600
H751	H75	0.824800	0.967000	0.859400
C2081	C208	0.806750	0.910700	0.759800
H761	H76	0.819500	0.860700	0.739700
C2091	C209	0.783160	0.931500	0.725700
C2101	C210	0.774810	0.884600	0.649700
C2111	C211	0.841080	0.541700	0.409400
C2121	C212	0.831130	0.493800	0.335300
C2131	C213	0.807090	0.514000	0.303400
H771	H77	0.794100	0.560700	0.325600
C2141	C214	0.804020	0.455900	0.232700
H781	H78	0.788800	0.460100	0.203100
C2151	C215	0.825930	0.392900	0.213000
C2161	C216	0.830100	0.320800	0.144100
O1121	O112	0.966750	0.044300	0.937700
O1131	O113	0.005010	0.132700	0.963100
O1141	O114	0.987750	0.831300	0.636200
O1151	O115	0.027420	0.897200	0.604400
O1161	O116	0.968650	0.308700	0.963300
O1171	O117	0.929530	0.266700	0.919000
O1181	O118	0.958090	0.615500	0.618800
O1191	O119	0.918660	0.535700	0.633500
O1201	O120	0.976980	0.368700	0.123600
O1211	O121	0.935880	0.301300	0.103400
O1221	O122	0.968320	0.632500	0.413800
O1231	O123	0.933360	0.542900	0.465100
O1241	O124	0.908170	0.022300	0.954700
O1251	O125	0.868510	0.080500	0.914100
O1261	O126	0.897170	0.766100	0.595000
O1271	O127	0.856820	0.833500	0.621700
O1281	O128	0.917070	0.028000	0.130800
O1291	O129	0.874440	0.045700	0.106900
O1301	O130	0.890590	0.244900	0.027000
O1311	O131	0.863660	0.770500	0.456700
O1321	O132	0.843840	0.312000	0.953100
O1331	O133	0.803760	0.384900	0.927700
O1341	O134	0.855650	0.584700	0.595500
O1351	O135	0.817110	0.641200	0.639600
O1361	O136	0.811490	0.063800	0.118600
O1371	O137	0.771220	0.135200	0.092100
O1381	O138	0.799380	0.831100	0.416400
O1391	O139	0.760410	0.897500	0.454900
O1401	O140	0.804720	0.134100	0.956000
O1411	O141	0.764120	0.175200	0.918800
O1421	O142	0.751330	0.874400	0.635200
O1431	O143	0.793690	0.864000	0.605400
O1441	O144	0.864570	0.520400	0.426400
O1451	O145	0.824580	0.596600	0.448700
O1461	O146	0.851850	0.270500	0.135700
O1471	O147	0.811950	0.312100	0.096200
O1481	O148	0.904640	0.735400	0.422600
S281	S28	0.984320	0.950450	0.785130
S291	S29	0.931800	0.410820	0.779180
S301	S30	0.964330	0.497800	0.265960
S311	S31	0.871590	0.959270	0.763190
S321	S32	0.904150	0.874570	0.277580
S331	S33	0.818710	0.507870	0.785140
S341	S34	0.797540	0.954820	0.265130
S351	S35	0.764360	0.027520	0.777820
S361	S36	0.850370	0.406120	0.279620
Sm191	Sm19	0.011220	0.306390	0.032420
Sm201	Sm20	0.937110	0.135350	0.025520
Sm211	Sm21	0.844220	0.135780	0.027060
Sm221	Sm22	0.773160	0.314700	0.023680
Sm231	Sm23	0.893980	0.589370	0.522280
Sm241	Sm24	0.823350	0.767120	0.527540
H791	H79	0.888200	0.276000	0.070000
H801	H80	0.891100	0.295000	0.992000
