data_UMESIQ_clean_PM
_symmetry_space_group_name_H-M	'P1'
_cell_length_a	17.205300
_cell_length_b	11.646200
_cell_length_c	18.262900
_cell_angle_alpha	90.000000
_cell_angle_beta	110.462000
_cell_angle_gamma	90.000000
_symmetry_Int_Tables_number 1

loop_
_symmetry_equiv_pos_as_xyz
'x,y,z'

loop_
_atom_site_label
_atom_site_type_symbol
_atom_site_fract_x
_atom_site_fract_y
_atom_site_fract_z
Yb11	Yb1	0.497240	0.071330	0.102040
Yb21	Yb2	0.998390	0.416580	0.595690
S11	S1	0.755210	0.210800	0.391120
S21	S2	0.262880	0.224610	0.557610
S31	S3	0.251170	0.291180	0.907900
O11	O1	0.076400	0.411200	0.723700
C11	C1	0.622900	0.092600	0.284800
O21	O2	0.594400	0.084600	0.338300
O31	O3	0.406300	0.078800	0.556900
O41	O4	0.918700	0.325700	0.482800
C21	C2	0.382800	0.141700	0.943200
C31	C3	0.296500	0.325300	0.448600
H11	H1	0.321600	0.345300	0.412800
C41	C4	0.114800	0.388500	0.793200
O51	O5	0.397400	0.175000	0.011500
C51	C5	0.825200	0.277300	0.357500
C61	C6	0.390300	0.151700	0.504600
C71	C7	0.126900	0.372000	0.527200
O61	O6	0.425400	0.067900	0.923500
C81	C8	0.209200	0.241300	0.761800
H21	H2	0.181600	0.239600	0.708000
C91	C9	0.895500	0.346500	0.410500
O71	O7	0.100900	0.430600	0.852000
O81	O8	0.080500	0.448900	0.487300
O91	O9	0.422200	0.165500	0.453200
O101	O10	0.113500	0.326200	0.583600
O111	O11	0.592000	0.044400	0.218500
C101	C10	0.700100	0.159500	0.299400
C111	C11	0.186700	0.307600	0.812100
C121	C12	0.228000	0.383500	0.453800
H31	H3	0.203300	0.446300	0.423000
C131	C13	0.323900	0.236800	0.500100
C141	C14	0.735700	0.190400	0.245300
H41	H4	0.715700	0.168100	0.193100
C151	C15	0.310700	0.194300	0.880800
C161	C16	0.805900	0.259600	0.279000
H51	H5	0.836500	0.290500	0.250600
C171	C17	0.280400	0.175200	0.802100
H61	H6	0.304300	0.123600	0.777200
C181	C18	0.201300	0.337600	0.509400
O121	O12	0.926500	0.418100	0.377700
Yb31	Yb3	0.502760	0.071330	0.397960
Yb41	Yb4	0.001610	0.416580	0.904310
S41	S4	0.244790	0.210800	0.108880
S51	S5	0.737120	0.224610	0.942390
S61	S6	0.748830	0.291180	0.592100
O131	O13	0.923600	0.411200	0.776300
C191	C19	0.377100	0.092600	0.215200
O141	O14	0.405600	0.084600	0.161700
O151	O15	0.593700	0.078800	0.943100
O161	O16	0.081300	0.325700	0.017200
C201	C20	0.617200	0.141700	0.556800
C211	C21	0.703500	0.325300	0.051400
H71	H7	0.678400	0.345300	0.087200
C221	C22	0.885200	0.388500	0.706800
O171	O17	0.602600	0.175000	0.488500
C231	C23	0.174800	0.277300	0.142500
C241	C24	0.609700	0.151700	0.995400
C251	C25	0.873100	0.372000	0.972800
O181	O18	0.574600	0.067900	0.576500
C261	C26	0.790800	0.241300	0.738200
H81	H8	0.818400	0.239600	0.792000
C271	C27	0.104500	0.346500	0.089500
O191	O19	0.899100	0.430600	0.648000
O201	O20	0.919500	0.448900	0.012700
O211	O21	0.577800	0.165500	0.046800
O221	O22	0.886500	0.326200	0.916400
O231	O23	0.408000	0.044400	0.281500
C281	C28	0.299900	0.159500	0.200600
C291	C29	0.813300	0.307600	0.687900
C301	C30	0.772000	0.383500	0.046200
H91	H9	0.796700	0.446300	0.077000
C311	C31	0.676100	0.236800	0.999900
C321	C32	0.264300	0.190400	0.254700
H101	H10	0.284300	0.168100	0.306900
C331	C33	0.689300	0.194300	0.619200
C341	C34	0.194100	0.259600	0.221000
H111	H11	0.163500	0.290500	0.249400
C351	C35	0.719600	0.175200	0.697900
H121	H12	0.695700	0.123600	0.722800
C361	C36	0.798700	0.337600	0.990600
O241	O24	0.073500	0.418100	0.122300
Yb51	Yb5	0.502760	0.928670	0.897960
Yb61	Yb6	0.001610	0.583420	0.404310
S71	S7	0.244790	0.789200	0.608880
S81	S8	0.737120	0.775390	0.442390
S91	S9	0.748830	0.708820	0.092100
O251	O25	0.923600	0.588800	0.276300
C371	C37	0.377100	0.907400	0.715200
O261	O26	0.405600	0.915400	0.661700
O271	O27	0.593700	0.921200	0.443100
O281	O28	0.081300	0.674300	0.517200
C381	C38	0.617200	0.858300	0.056800
C391	C39	0.703500	0.674700	0.551400
H131	H13	0.678400	0.654700	0.587200
C401	C40	0.885200	0.611500	0.206800
O291	O29	0.602600	0.825000	0.988500
C411	C41	0.174800	0.722700	0.642500
C421	C42	0.609700	0.848300	0.495400
C431	C43	0.873100	0.628000	0.472800
O301	O30	0.574600	0.932100	0.076500
C441	C44	0.790800	0.758700	0.238200
H141	H14	0.818400	0.760400	0.292000
C451	C45	0.104500	0.653500	0.589500
O311	O31	0.899100	0.569400	0.148000
O321	O32	0.919500	0.551100	0.512700
O331	O33	0.577800	0.834500	0.546800
O341	O34	0.886500	0.673800	0.416400
O351	O35	0.408000	0.955600	0.781500
C461	C46	0.299900	0.840500	0.700600
C471	C47	0.813300	0.692400	0.187900
C481	C48	0.772000	0.616500	0.546200
H151	H15	0.796700	0.553700	0.577000
C491	C49	0.676100	0.763200	0.499900
C501	C50	0.264300	0.809600	0.754700
H161	H16	0.284300	0.831900	0.806900
C511	C51	0.689300	0.805700	0.119200
C521	C52	0.194100	0.740400	0.721000
H171	H17	0.163500	0.709500	0.749400
C531	C53	0.719600	0.824800	0.197900
H181	H18	0.695700	0.876400	0.222800
C541	C54	0.798700	0.662400	0.490600
O361	O36	0.073500	0.581900	0.622300
Yb71	Yb7	0.497240	0.928670	0.602040
Yb81	Yb8	0.998390	0.583420	0.095690
S101	S10	0.755210	0.789200	0.891120
S111	S11	0.262880	0.775390	0.057610
S121	S12	0.251170	0.708820	0.407900
O371	O37	0.076400	0.588800	0.223700
C551	C55	0.622900	0.907400	0.784800
O381	O38	0.594400	0.915400	0.838300
O391	O39	0.406300	0.921200	0.056900
O401	O40	0.918700	0.674300	0.982800
C561	C56	0.382800	0.858300	0.443200
C571	C57	0.296500	0.674700	0.948600
H191	H19	0.321600	0.654700	0.912800
C581	C58	0.114800	0.611500	0.293200
O411	O41	0.397400	0.825000	0.511500
C591	C59	0.825200	0.722700	0.857500
C601	C60	0.390300	0.848300	0.004600
C611	C61	0.126900	0.628000	0.027200
O421	O42	0.425400	0.932100	0.423500
C621	C62	0.209200	0.758700	0.261800
H201	H20	0.181600	0.760400	0.208000
C631	C63	0.895500	0.653500	0.910500
O431	O43	0.100900	0.569400	0.352000
O441	O44	0.080500	0.551100	0.987300
O451	O45	0.422200	0.834500	0.953200
O461	O46	0.113500	0.673800	0.083600
O471	O47	0.592000	0.955600	0.718500
C641	C64	0.700100	0.840500	0.799400
C651	C65	0.186700	0.692400	0.312100
C661	C66	0.228000	0.616500	0.953800
H211	H21	0.203300	0.553700	0.923000
C671	C67	0.323900	0.763200	0.000100
C681	C68	0.735700	0.809600	0.745300
H221	H22	0.715700	0.831900	0.693100
C691	C69	0.310700	0.805700	0.380800
C701	C70	0.805900	0.740400	0.779000
H231	H23	0.836500	0.709500	0.750600
C711	C71	0.280400	0.824800	0.302100
H241	H24	0.304300	0.876400	0.277200
C721	C72	0.201300	0.662400	0.009400
O481	O48	0.926500	0.581900	0.877700
