data_UMESOW_clean_PM
_symmetry_space_group_name_H-M	'P1'
_cell_length_a	17.397400
_cell_length_b	11.645300
_cell_length_c	18.375000
_cell_angle_alpha	90.000000
_cell_angle_beta	110.319000
_cell_angle_gamma	90.000000
_symmetry_Int_Tables_number 1

loop_
_symmetry_equiv_pos_as_xyz
'x,y,z'

loop_
_atom_site_label
_atom_site_type_symbol
_atom_site_fract_x
_atom_site_fract_y
_atom_site_fract_z
Gd11	Gd1	0.998770	0.583560	0.594250
Gd21	Gd2	0.502530	0.931230	0.399470
S11	S1	0.755790	0.793960	0.388990
S21	S2	0.749860	0.704120	0.589340
S31	S3	0.735070	0.227550	0.440190
O11	O1	0.595780	0.919400	0.335960
O21	O2	0.882710	0.314800	0.412340
C11	C1	0.883300	0.611700	0.705700
O31	O3	0.605500	0.811800	0.483120
O41	O4	0.916530	0.680100	0.479100
C21	C2	0.798100	0.339000	0.487400
C31	C3	0.813000	0.692800	0.684500
C41	C4	0.608800	0.163300	0.493200
C51	C5	0.806100	0.745000	0.276600
H11	H1	0.836300	0.714600	0.248200
C61	C6	0.789900	0.764900	0.732500
H21	H2	0.817300	0.770000	0.785700
O51	O5	0.596830	0.963700	0.218250
O61	O6	0.576890	0.932500	0.562890
C71	C7	0.620200	0.853000	0.550000
O71	O7	0.590300	0.090900	0.439500
O81	O8	0.919520	0.446300	0.503940
C81	C8	0.691000	0.806100	0.613400
C91	C9	0.675900	0.244500	0.497800
C101	C10	0.773700	0.387900	0.542600
H31	H3	0.799700	0.450200	0.572700
C111	C11	0.896200	0.661600	0.407900
O91	O9	0.577570	0.174400	0.544780
C121	C12	0.825400	0.727600	0.355000
C131	C13	0.702000	0.846100	0.297500
C141	C14	0.736100	0.813700	0.243800
H41	H4	0.715300	0.834700	0.191800
C151	C15	0.703800	0.332600	0.549000
H51	H5	0.679400	0.354400	0.584600
C161	C16	0.719800	0.830500	0.691400
H61	H6	0.695900	0.884000	0.714600
O101	O10	0.898510	0.565300	0.648980
O111	O11	0.921250	0.592000	0.774930
O121	O12	0.929300	0.592500	0.375040
C171	C17	0.625800	0.913700	0.283200
C181	C18	0.870100	0.368400	0.466600
Gd31	Gd3	0.001230	0.583560	0.905750
Gd41	Gd4	0.497470	0.931230	0.100530
S41	S4	0.244210	0.793960	0.111010
S51	S5	0.250140	0.704120	0.910660
S61	S6	0.264930	0.227550	0.059810
O131	O13	0.404220	0.919400	0.164040
O141	O14	0.117290	0.314800	0.087660
C191	C19	0.116700	0.611700	0.794300
O151	O15	0.394500	0.811800	0.016880
O161	O16	0.083470	0.680100	0.020900
C201	C20	0.201900	0.339000	0.012600
C211	C21	0.187000	0.692800	0.815500
C221	C22	0.391200	0.163300	0.006800
C231	C23	0.193900	0.745000	0.223400
H71	H7	0.163700	0.714600	0.251800
C241	C24	0.210100	0.764900	0.767500
H81	H8	0.182700	0.770000	0.714300
O171	O17	0.403170	0.963700	0.281750
O181	O18	0.423110	0.932500	0.937110
C251	C25	0.379800	0.853000	0.950000
O191	O19	0.409700	0.090900	0.060500
O201	O20	0.080480	0.446300	0.996060
C261	C26	0.309000	0.806100	0.886600
C271	C27	0.324100	0.244500	0.002200
C281	C28	0.226300	0.387900	0.957400
H91	H9	0.200300	0.450200	0.927300
C291	C29	0.103800	0.661600	0.092100
O211	O21	0.422430	0.174400	0.955220
C301	C30	0.174600	0.727600	0.145000
C311	C31	0.298000	0.846100	0.202500
C321	C32	0.263900	0.813700	0.256200
H101	H10	0.284700	0.834700	0.308200
C331	C33	0.296200	0.332600	0.951000
H111	H11	0.320600	0.354400	0.915400
C341	C34	0.280200	0.830500	0.808600
H121	H12	0.304100	0.884000	0.785400
O221	O22	0.101490	0.565300	0.851020
O231	O23	0.078750	0.592000	0.725070
O241	O24	0.070700	0.592500	0.124960
C351	C35	0.374200	0.913700	0.216800
C361	C36	0.129900	0.368400	0.033400
Gd51	Gd5	0.001230	0.416440	0.405740
Gd61	Gd6	0.497470	0.068770	0.600530
S71	S7	0.244210	0.206040	0.611010
S81	S8	0.250140	0.295880	0.410660
S91	S9	0.264930	0.772450	0.559810
O251	O25	0.404220	0.080600	0.664040
O261	O26	0.117290	0.685200	0.587660
C371	C37	0.116700	0.388300	0.294300
O271	O27	0.394500	0.188200	0.516880
O281	O28	0.083470	0.319900	0.520900
C381	C38	0.201900	0.661000	0.512600
C391	C39	0.187000	0.307200	0.315500
C401	C40	0.391200	0.836700	0.506800
C411	C41	0.193900	0.255000	0.723400
H131	H13	0.163700	0.285400	0.751800
C421	C42	0.210100	0.235100	0.267500
H141	H14	0.182700	0.230000	0.214300
O291	O29	0.403170	0.036300	0.781750
O301	O30	0.423110	0.067500	0.437110
C431	C43	0.379800	0.147000	0.450000
O311	O31	0.409700	0.909100	0.560500
O321	O32	0.080480	0.553700	0.496060
C441	C44	0.309000	0.193900	0.386600
C451	C45	0.324100	0.755500	0.502200
C461	C46	0.226300	0.612100	0.457400
H151	H15	0.200300	0.549800	0.427300
C471	C47	0.103800	0.338400	0.592100
O331	O33	0.422430	0.825600	0.455220
C481	C48	0.174600	0.272400	0.645000
C491	C49	0.298000	0.153900	0.702500
C501	C50	0.263900	0.186300	0.756200
H161	H16	0.284700	0.165300	0.808200
C511	C51	0.296200	0.667400	0.451000
H171	H17	0.320600	0.645600	0.415400
C521	C52	0.280200	0.169500	0.308600
H181	H18	0.304100	0.116000	0.285400
O341	O34	0.101490	0.434700	0.351020
O351	O35	0.078750	0.408000	0.225070
O361	O36	0.070700	0.407500	0.624960
C531	C53	0.374200	0.086300	0.716800
C541	C54	0.129900	0.631600	0.533400
Gd71	Gd7	0.998770	0.416440	0.094250
Gd81	Gd8	0.502530	0.068770	0.899470
S101	S10	0.755790	0.206040	0.888990
S111	S11	0.749860	0.295880	0.089340
S121	S12	0.735070	0.772450	0.940190
O371	O37	0.595780	0.080600	0.835960
O381	O38	0.882710	0.685200	0.912340
C551	C55	0.883300	0.388300	0.205700
O391	O39	0.605500	0.188200	0.983120
O401	O40	0.916530	0.319900	0.979100
C561	C56	0.798100	0.661000	0.987400
C571	C57	0.813000	0.307200	0.184500
C581	C58	0.608800	0.836700	0.993200
C591	C59	0.806100	0.255000	0.776600
H191	H19	0.836300	0.285400	0.748200
C601	C60	0.789900	0.235100	0.232500
H201	H20	0.817300	0.230000	0.285700
O411	O41	0.596830	0.036300	0.718250
O421	O42	0.576890	0.067500	0.062890
C611	C61	0.620200	0.147000	0.050000
O431	O43	0.590300	0.909100	0.939500
O441	O44	0.919520	0.553700	0.003940
C621	C62	0.691000	0.193900	0.113400
C631	C63	0.675900	0.755500	0.997800
C641	C64	0.773700	0.612100	0.042600
H211	H21	0.799700	0.549800	0.072700
C651	C65	0.896200	0.338400	0.907900
O451	O45	0.577570	0.825600	0.044780
C661	C66	0.825400	0.272400	0.855000
C671	C67	0.702000	0.153900	0.797500
C681	C68	0.736100	0.186300	0.743800
H221	H22	0.715300	0.165300	0.691800
C691	C69	0.703800	0.667400	0.049000
H231	H23	0.679400	0.645600	0.084600
C701	C70	0.719800	0.169500	0.191400
H241	H24	0.695900	0.116000	0.214600
O461	O46	0.898510	0.434700	0.148980
O471	O47	0.921250	0.408000	0.274930
O481	O48	0.929300	0.407500	0.875040
C711	C71	0.625800	0.086300	0.783200
C721	C72	0.870100	0.631600	0.966600
