data_UMIGAA_clean_PM
_symmetry_space_group_name_H-M	'P1'
_cell_length_a	20.508000
_cell_length_b	20.508000
_cell_length_c	17.792000
_cell_angle_alpha	90.000000
_cell_angle_beta	90.000000
_cell_angle_gamma	90.000000
_symmetry_Int_Tables_number 1

loop_
_symmetry_equiv_pos_as_xyz
'x,y,z'

loop_
_atom_site_label
_atom_site_type_symbol
_atom_site_fract_x
_atom_site_fract_y
_atom_site_fract_z
Zn11	Zn1	0.742910	0.880780	0.789770
O11	O1	0.663490	0.056930	0.430900
O21	O2	0.840100	0.759900	0.450900
C11	C1	0.725600	0.961300	0.444000
O31	O3	0.765100	0.867700	0.684500
O41	O4	0.828100	0.811200	0.339700
C21	C2	0.727200	0.904600	0.645500
O51	O5	0.684700	0.941000	0.673600
C31	C3	0.711400	0.957500	0.519800
H11	H1	0.684900	0.989700	0.543100
C41	C4	0.737000	0.905100	0.562200
C51	C5	0.782500	0.857400	0.448700
C61	C6	0.772600	0.856700	0.525500
H21	H2	0.790700	0.822100	0.554200
C71	C7	0.818700	0.804200	0.411200
C81	C8	0.759700	0.910600	0.409800
H31	H3	0.767500	0.912900	0.357300
O61	O6	0.739300	0.034700	0.342800
C91	C9	0.706900	0.022200	0.402700
Zn21	Zn2	0.242910	0.380780	0.289770
O71	O7	0.163490	0.556930	0.930900
O81	O8	0.340100	0.259900	0.950900
C101	C10	0.225600	0.461300	0.944000
O91	O9	0.265100	0.367700	0.184500
O101	O10	0.328100	0.311200	0.839700
C111	C11	0.227200	0.404600	0.145500
O111	O11	0.184700	0.441000	0.173600
C121	C12	0.211400	0.457500	0.019800
H41	H4	0.184900	0.489700	0.043100
C131	C13	0.237000	0.405100	0.062200
C141	C14	0.282500	0.357400	0.948700
C151	C15	0.272600	0.356700	0.025500
H51	H5	0.290700	0.322100	0.054200
C161	C16	0.318700	0.304200	0.911200
C171	C17	0.259700	0.410600	0.909800
H61	H6	0.267500	0.412900	0.857300
O121	O12	0.239300	0.534700	0.842800
C181	C18	0.206900	0.522200	0.902700
Zn31	Zn3	0.257090	0.119220	0.789770
O131	O13	0.336510	0.943070	0.430900
O141	O14	0.159900	0.240100	0.450900
C191	C19	0.274400	0.038700	0.444000
O151	O15	0.234900	0.132300	0.684500
O161	O16	0.171900	0.188800	0.339700
C201	C20	0.272800	0.095400	0.645500
O171	O17	0.315300	0.059000	0.673600
C211	C21	0.288600	0.042500	0.519800
H71	H7	0.315100	0.010300	0.543100
C221	C22	0.263000	0.094900	0.562200
C231	C23	0.217500	0.142600	0.448700
C241	C24	0.227400	0.143300	0.525500
H81	H8	0.209300	0.177900	0.554200
C251	C25	0.181300	0.195800	0.411200
C261	C26	0.240300	0.089400	0.409800
H91	H9	0.232500	0.087100	0.357300
O181	O18	0.260700	0.965300	0.342800
C271	C27	0.293100	0.977800	0.402700
Zn41	Zn4	0.757090	0.619220	0.289770
O191	O19	0.836510	0.443070	0.930900
O201	O20	0.659900	0.740100	0.950900
C281	C28	0.774400	0.538700	0.944000
O211	O21	0.734900	0.632300	0.184500
O221	O22	0.671900	0.688800	0.839700
C291	C29	0.772800	0.595400	0.145500
O231	O23	0.815300	0.559000	0.173600
C301	C30	0.788600	0.542500	0.019800
H101	H10	0.815100	0.510300	0.043100
C311	C31	0.763000	0.594900	0.062200
C321	C32	0.717500	0.642600	0.948700
C331	C33	0.727400	0.643300	0.025500
H111	H11	0.709300	0.677900	0.054200
C341	C34	0.681300	0.695800	0.911200
C351	C35	0.740300	0.589400	0.909800
H121	H12	0.732500	0.587100	0.857300
O241	O24	0.760700	0.465300	0.842800
C361	C36	0.793100	0.477800	0.902700
Zn51	Zn5	0.119220	0.742910	0.789770
O251	O25	0.943070	0.663490	0.430900
O261	O26	0.240100	0.840100	0.450900
C371	C37	0.038700	0.725600	0.444000
O271	O27	0.132300	0.765100	0.684500
O281	O28	0.188800	0.828100	0.339700
C381	C38	0.095400	0.727200	0.645500
O291	O29	0.059000	0.684700	0.673600
C391	C39	0.042500	0.711400	0.519800
H131	H13	0.010300	0.684900	0.543100
C401	C40	0.094900	0.737000	0.562200
C411	C41	0.142600	0.782500	0.448700
C421	C42	0.143300	0.772600	0.525500
H141	H14	0.177900	0.790700	0.554200
C431	C43	0.195800	0.818700	0.411200
C441	C44	0.089400	0.759700	0.409800
H151	H15	0.087100	0.767500	0.357300
O301	O30	0.965300	0.739300	0.342800
C451	C45	0.977800	0.706900	0.402700
Zn61	Zn6	0.619220	0.242910	0.289770
O311	O31	0.443070	0.163490	0.930900
O321	O32	0.740100	0.340100	0.950900
C461	C46	0.538700	0.225600	0.944000
O331	O33	0.632300	0.265100	0.184500
O341	O34	0.688800	0.328100	0.839700
C471	C47	0.595400	0.227200	0.145500
O351	O35	0.559000	0.184700	0.173600
C481	C48	0.542500	0.211400	0.019800
H161	H16	0.510300	0.184900	0.043100
C491	C49	0.594900	0.237000	0.062200
C501	C50	0.642600	0.282500	0.948700
C511	C51	0.643300	0.272600	0.025500
H171	H17	0.677900	0.290700	0.054200
C521	C52	0.695800	0.318700	0.911200
C531	C53	0.589400	0.259700	0.909800
H181	H18	0.587100	0.267500	0.857300
O361	O36	0.465300	0.239300	0.842800
C541	C54	0.477800	0.206900	0.902700
Zn71	Zn7	0.880780	0.257090	0.789770
O371	O37	0.056930	0.336510	0.430900
O381	O38	0.759900	0.159900	0.450900
C551	C55	0.961300	0.274400	0.444000
O391	O39	0.867700	0.234900	0.684500
O401	O40	0.811200	0.171900	0.339700
C561	C56	0.904600	0.272800	0.645500
O411	O41	0.941000	0.315300	0.673600
C571	C57	0.957500	0.288600	0.519800
H191	H19	0.989700	0.315100	0.543100
C581	C58	0.905100	0.263000	0.562200
C591	C59	0.857400	0.217500	0.448700
C601	C60	0.856700	0.227400	0.525500
H201	H20	0.822100	0.209300	0.554200
C611	C61	0.804200	0.181300	0.411200
C621	C62	0.910600	0.240300	0.409800
H211	H21	0.912900	0.232500	0.357300
O421	O42	0.034700	0.260700	0.342800
C631	C63	0.022200	0.293100	0.402700
Zn81	Zn8	0.380780	0.757090	0.289770
O431	O43	0.556930	0.836510	0.930900
O441	O44	0.259900	0.659900	0.950900
C641	C64	0.461300	0.774400	0.944000
O451	O45	0.367700	0.734900	0.184500
O461	O46	0.311200	0.671900	0.839700
C651	C65	0.404600	0.772800	0.145500
O471	O47	0.441000	0.815300	0.173600
C661	C66	0.457500	0.788600	0.019800
H221	H22	0.489700	0.815100	0.043100
C671	C67	0.405100	0.763000	0.062200
C681	C68	0.357400	0.717500	0.948700
C691	C69	0.356700	0.727400	0.025500
H231	H23	0.322100	0.709300	0.054200
C701	C70	0.304200	0.681300	0.911200
C711	C71	0.410600	0.740300	0.909800
H241	H24	0.412900	0.732500	0.857300
O481	O48	0.534700	0.760700	0.842800
C721	C72	0.522200	0.793100	0.902700
Zn91	Zn9	0.742910	0.119220	0.289770
O491	O49	0.663490	0.943070	0.930900
O501	O50	0.840100	0.240100	0.950900
C731	C73	0.725600	0.038700	0.944000
O511	O51	0.765100	0.132300	0.184500
O521	O52	0.828100	0.188800	0.839700
C741	C74	0.727200	0.095400	0.145500
O531	O53	0.684700	0.059000	0.173600
C751	C75	0.711400	0.042500	0.019800
H251	H25	0.684900	0.010300	0.043100
C761	C76	0.737000	0.094900	0.062200
C771	C77	0.782500	0.142600	0.948700
C781	C78	0.772600	0.143300	0.025500
H261	H26	0.790700	0.177900	0.054200
C791	C79	0.818700	0.195800	0.911200
C801	C80	0.759700	0.089400	0.909800
H271	H27	0.767500	0.087100	0.857300
O541	O54	0.739300	0.965300	0.842800
C811	C81	0.706900	0.977800	0.902700
Zn101	Zn10	0.242910	0.619220	0.789770
O551	O55	0.163490	0.443070	0.430900
O561	O56	0.340100	0.740100	0.450900
C821	C82	0.225600	0.538700	0.444000
O571	O57	0.265100	0.632300	0.684500
O581	O58	0.328100	0.688800	0.339700
C831	C83	0.227200	0.595400	0.645500
O591	O59	0.184700	0.559000	0.673600
C841	C84	0.211400	0.542500	0.519800
H281	H28	0.184900	0.510300	0.543100
C851	C85	0.237000	0.594900	0.562200
C861	C86	0.282500	0.642600	0.448700
C871	C87	0.272600	0.643300	0.525500
H291	H29	0.290700	0.677900	0.554200
C881	C88	0.318700	0.695800	0.411200
C891	C89	0.259700	0.589400	0.409800
H301	H30	0.267500	0.587100	0.357300
O601	O60	0.239300	0.465300	0.342800
C901	C90	0.206900	0.477800	0.402700
Zn111	Zn11	0.257090	0.880780	0.289770
O611	O61	0.336510	0.056930	0.930900
O621	O62	0.159900	0.759900	0.950900
C911	C91	0.274400	0.961300	0.944000
O631	O63	0.234900	0.867700	0.184500
O641	O64	0.171900	0.811200	0.839700
C921	C92	0.272800	0.904600	0.145500
O651	O65	0.315300	0.941000	0.173600
C931	C93	0.288600	0.957500	0.019800
H311	H31	0.315100	0.989700	0.043100
C941	C94	0.263000	0.905100	0.062200
C951	C95	0.217500	0.857400	0.948700
C961	C96	0.227400	0.856700	0.025500
H321	H32	0.209300	0.822100	0.054200
C971	C97	0.181300	0.804200	0.911200
C981	C98	0.240300	0.910600	0.909800
H331	H33	0.232500	0.912900	0.857300
O661	O66	0.260700	0.034700	0.842800
C991	C99	0.293100	0.022200	0.902700
Zn121	Zn12	0.757090	0.380780	0.789770
O671	O67	0.836510	0.556930	0.430900
O681	O68	0.659900	0.259900	0.450900
C1001	C100	0.774400	0.461300	0.444000
O691	O69	0.734900	0.367700	0.684500
O701	O70	0.671900	0.311200	0.339700
C1011	C101	0.772800	0.404600	0.645500
O711	O71	0.815300	0.441000	0.673600
C1021	C102	0.788600	0.457500	0.519800
H341	H34	0.815100	0.489700	0.543100
C1031	C103	0.763000	0.405100	0.562200
C1041	C104	0.717500	0.357400	0.448700
C1051	C105	0.727400	0.356700	0.525500
H351	H35	0.709300	0.322100	0.554200
C1061	C106	0.681300	0.304200	0.411200
C1071	C107	0.740300	0.410600	0.409800
H361	H36	0.732500	0.412900	0.357300
O721	O72	0.760700	0.534700	0.342800
C1081	C108	0.793100	0.522200	0.402700
Zn131	Zn13	0.119220	0.257090	0.289770
O731	O73	0.943070	0.336510	0.930900
O741	O74	0.240100	0.159900	0.950900
C1091	C109	0.038700	0.274400	0.944000
O751	O75	0.132300	0.234900	0.184500
O761	O76	0.188800	0.171900	0.839700
C1101	C110	0.095400	0.272800	0.145500
O771	O77	0.059000	0.315300	0.173600
C1111	C111	0.042500	0.288600	0.019800
H371	H37	0.010300	0.315100	0.043100
C1121	C112	0.094900	0.263000	0.062200
C1131	C113	0.142600	0.217500	0.948700
C1141	C114	0.143300	0.227400	0.025500
H381	H38	0.177900	0.209300	0.054200
C1151	C115	0.195800	0.181300	0.911200
C1161	C116	0.089400	0.240300	0.909800
H391	H39	0.087100	0.232500	0.857300
O781	O78	0.965300	0.260700	0.842800
C1171	C117	0.977800	0.293100	0.902700
Zn141	Zn14	0.619220	0.757090	0.789770
O791	O79	0.443070	0.836510	0.430900
O801	O80	0.740100	0.659900	0.450900
C1181	C118	0.538700	0.774400	0.444000
O811	O81	0.632300	0.734900	0.684500
O821	O82	0.688800	0.671900	0.339700
C1191	C119	0.595400	0.772800	0.645500
O831	O83	0.559000	0.815300	0.673600
C1201	C120	0.542500	0.788600	0.519800
H401	H40	0.510300	0.815100	0.543100
C1211	C121	0.594900	0.763000	0.562200
C1221	C122	0.642600	0.717500	0.448700
C1231	C123	0.643300	0.727400	0.525500
H411	H41	0.677900	0.709300	0.554200
C1241	C124	0.695800	0.681300	0.411200
C1251	C125	0.589400	0.740300	0.409800
H421	H42	0.587100	0.732500	0.357300
O841	O84	0.465300	0.760700	0.342800
C1261	C126	0.477800	0.793100	0.402700
Zn151	Zn15	0.880780	0.742910	0.289770
O851	O85	0.056930	0.663490	0.930900
O861	O86	0.759900	0.840100	0.950900
C1271	C127	0.961300	0.725600	0.944000
O871	O87	0.867700	0.765100	0.184500
O881	O88	0.811200	0.828100	0.839700
C1281	C128	0.904600	0.727200	0.145500
O891	O89	0.941000	0.684700	0.173600
C1291	C129	0.957500	0.711400	0.019800
H431	H43	0.989700	0.684900	0.043100
C1301	C130	0.905100	0.737000	0.062200
C1311	C131	0.857400	0.782500	0.948700
C1321	C132	0.856700	0.772600	0.025500
H441	H44	0.822100	0.790700	0.054200
C1331	C133	0.804200	0.818700	0.911200
C1341	C134	0.910600	0.759700	0.909800
H451	H45	0.912900	0.767500	0.857300
O901	O90	0.034700	0.739300	0.842800
C1351	C135	0.022200	0.706900	0.902700
Zn161	Zn16	0.380780	0.242910	0.789770
O911	O91	0.556930	0.163490	0.430900
O921	O92	0.259900	0.340100	0.450900
C1361	C136	0.461300	0.225600	0.444000
O931	O93	0.367700	0.265100	0.684500
O941	O94	0.311200	0.328100	0.339700
C1371	C137	0.404600	0.227200	0.645500
O951	O95	0.441000	0.184700	0.673600
C1381	C138	0.457500	0.211400	0.519800
H461	H46	0.489700	0.184900	0.543100
C1391	C139	0.405100	0.237000	0.562200
C1401	C140	0.357400	0.282500	0.448700
C1411	C141	0.356700	0.272600	0.525500
H471	H47	0.322100	0.290700	0.554200
C1421	C142	0.304200	0.318700	0.411200
C1431	C143	0.410600	0.259700	0.409800
H481	H48	0.412900	0.267500	0.357300
O961	O96	0.534700	0.239300	0.342800
C1441	C144	0.522200	0.206900	0.402700
Co11	Co1	0.658180	0.841820	0.938560
O971	O97	0.662370	0.837630	0.819500
Co21	Co2	0.341820	0.158180	0.938560
O981	O98	0.337630	0.162370	0.819500
Co31	Co3	0.158180	0.658180	0.938560
O991	O99	0.162370	0.662370	0.819500
Co41	Co4	0.841820	0.341820	0.938560
O1001	O100	0.837630	0.337630	0.819500
Co51	Co5	0.658180	0.158180	0.438560
O1011	O101	0.662370	0.162370	0.319500
Co61	Co6	0.341820	0.841820	0.438560
O1021	O102	0.337630	0.837630	0.319500
Co71	Co7	0.158180	0.341820	0.438560
O1031	O103	0.162370	0.337630	0.319500
Co81	Co8	0.841820	0.658180	0.438560
O1041	O104	0.837630	0.662370	0.319500
