data_UMOKIS_clean_PM
_symmetry_space_group_name_H-M	'P1'
_cell_length_a	12.115000
_cell_length_b	25.751000
_cell_length_c	35.588000
_cell_angle_alpha	90.000000
_cell_angle_beta	90.639000
_cell_angle_gamma	90.000000
_symmetry_Int_Tables_number 1

loop_
_symmetry_equiv_pos_as_xyz
'x,y,z'

loop_
_atom_site_label
_atom_site_type_symbol
_atom_site_fract_x
_atom_site_fract_y
_atom_site_fract_z
Zn11	Zn1	0.782990	0.791480	0.334740
Zn21	Zn2	0.774650	0.826460	0.193030
Zn31	Zn3	0.100250	0.712890	0.481660
N11	N1	0.788200	0.786070	0.390550
N21	N2	0.748000	0.765010	0.448430
N31	N3	0.793100	0.693910	0.638950
N41	N4	0.759500	0.711530	0.579150
N51	N5	0.251200	0.685890	0.495210
N61	N6	0.428800	0.682460	0.504410
N71	N7	0.629600	0.805430	0.314850
N81	N8	0.453000	0.806860	0.302390
N91	N9	0.098800	0.715530	0.424810
N101	N10	0.137500	0.733640	0.366410
N111	N11	0.935700	0.826330	0.211280
N121	N12	0.086700	0.812960	0.244200
N131	N13	0.754800	0.502500	0.298160
N141	N14	0.745300	0.485700	0.208110
N151	N15	0.259300	0.664400	0.225240
N161	N16	0.267500	0.620340	0.310990
O11	O1	0.660900	0.506890	0.309470
O21	O2	0.802600	0.462100	0.296680
O31	O3	0.712000	0.528500	0.214090
O41	O4	0.683400	0.451400	0.197800
O51	O5	0.707300	0.766140	0.217210
O61	O6	0.557800	0.792280	0.186520
O71	O7	0.292200	0.390050	0.289220
O81	O8	0.193600	0.431260	0.331330
O91	O9	0.209100	0.703300	0.215860
O101	O10	0.214500	0.623600	0.226300
O111	O11	0.329600	0.657500	0.314170
O121	O12	0.184900	0.619100	0.324800
O131	O13	0.851900	0.732500	0.306870
O141	O14	0.719000	0.691300	0.336050
O151	O15	0.145800	0.352050	0.187080
O161	O16	0.998500	0.353380	0.149240
C11	C1	0.306800	0.481340	0.291630
C21	C2	0.588800	0.721910	0.475640
H11	H1	0.550800	0.724600	0.452900
C31	C3	0.695500	0.740460	0.479750
C41	C4	0.753000	0.736940	0.513360
H21	H2	0.824600	0.749700	0.515500
C51	C5	0.702500	0.714250	0.543650
C61	C6	0.595600	0.694710	0.540800
H31	H3	0.562000	0.679000	0.561200
C71	C7	0.541000	0.699320	0.506650
C81	C8	0.725600	0.756680	0.412000
H41	H4	0.673000	0.733300	0.403000
C91	C9	0.853000	0.813400	0.414390
H51	H5	0.906000	0.837500	0.407400
C101	C10	0.829000	0.800100	0.450020
H61	H6	0.862600	0.813100	0.471700
C111	C11	0.720000	0.691000	0.611300
H71	H7	0.650000	0.676600	0.613600
C121	C12	0.881900	0.716800	0.623920
H81	H8	0.947300	0.723500	0.636900
C131	C13	0.863700	0.728800	0.587200
H91	H9	0.912000	0.745300	0.571000
C141	C14	0.344300	0.709960	0.490180
H101	H10	0.351200	0.741900	0.478300
C151	C15	0.276000	0.640500	0.513550
H111	H11	0.224900	0.615600	0.520700
C161	C16	0.385200	0.637610	0.519660
H121	H12	0.423700	0.611000	0.531700
C171	C17	0.271000	0.807890	0.272640
H131	H13	0.300500	0.824100	0.251600
C181	C18	0.337100	0.794930	0.303370
C191	C19	0.295300	0.770380	0.334590
H141	H14	0.340300	0.762500	0.355100
C201	C20	0.184300	0.757970	0.334340
C211	C21	0.115000	0.770810	0.304500
H151	H15	0.040300	0.762500	0.305000
C221	C22	0.158800	0.795840	0.274340
C231	C23	0.534000	0.783750	0.321700
H161	H16	0.524000	0.755900	0.337900
C241	C24	0.608100	0.843700	0.289130
H171	H17	0.661000	0.865500	0.278900
C251	C25	0.501500	0.845210	0.280900
H181	H18	0.466200	0.867500	0.264100
C261	C26	0.163800	0.741900	0.402320
H191	H19	0.220700	0.763500	0.410500
C271	C27	0.026600	0.689600	0.402030
H201	H20	0.970300	0.667900	0.410200
C281	C28	0.049300	0.700000	0.366200
H211	H21	0.012500	0.687100	0.345100
C291	C29	0.980800	0.800360	0.239430
H221	H22	0.943500	0.776300	0.254100
C301	C30	0.017400	0.857110	0.197370
H231	H23	0.009600	0.880000	0.177300
C311	C31	0.111500	0.849100	0.217340
H241	H24	0.179500	0.865000	0.213600
C321	C32	0.798500	0.691300	0.314430
C331	C33	0.834900	0.641770	0.296360
C341	C34	0.784400	0.595330	0.305060
H251	H25	0.730300	0.594500	0.323400
C351	C35	0.813000	0.550670	0.286980
C361	C36	0.893900	0.548890	0.259120
C371	C37	0.945700	0.595350	0.251400
H261	H26	0.001000	0.595900	0.233500
C381	C38	0.918400	0.640720	0.269300
H271	H27	0.955800	0.671200	0.263400
C391	C39	0.928300	0.501400	0.238010
C401	C40	0.036600	0.484800	0.242650
H281	H28	0.083300	0.502600	0.259100
C411	C41	0.076200	0.442400	0.223250
H291	H29	0.148800	0.431900	0.227300
C421	C42	0.011200	0.415480	0.198210
C431	C43	0.902400	0.430870	0.193960
H301	H30	0.855700	0.412900	0.177600
C441	C44	0.863600	0.472410	0.213700
C451	C45	0.053300	0.369940	0.175840
C461	C46	0.606000	0.761980	0.207430
C471	C47	0.545900	0.714890	0.222670
C481	C48	0.602400	0.675460	0.240880
H311	H31	0.678300	0.678300	0.244600
C491	C49	0.548000	0.632000	0.253520
H321	H32	0.588400	0.605600	0.265100
C501	C50	0.434500	0.626570	0.249480
C511	C51	0.379500	0.666390	0.231070
C521	C52	0.433300	0.710580	0.218560
H331	H33	0.393100	0.737300	0.207400
C531	C53	0.386100	0.577290	0.264290
C541	C54	0.424000	0.530200	0.250110
H341	H34	0.477300	0.530300	0.231500
C551	C55	0.384000	0.483220	0.263040
H351	H35	0.409200	0.452500	0.252500
C561	C56	0.271900	0.526790	0.306790
H361	H36	0.221800	0.526300	0.326400
C571	C57	0.310300	0.573800	0.293370
C581	C58	0.260800	0.430820	0.305960
Zn41	Zn4	0.217010	0.291480	0.165260
Zn51	Zn5	0.225350	0.326460	0.306970
Zn61	Zn6	0.899750	0.212890	0.018340
N171	N17	0.211800	0.286070	0.109450
N181	N18	0.252000	0.265010	0.051570
N191	N19	0.206900	0.193910	0.861050
N201	N20	0.240500	0.211530	0.920850
N211	N21	0.748800	0.185890	0.004790
N221	N22	0.571200	0.182460	0.995590
N231	N23	0.370400	0.305430	0.185150
N241	N24	0.547000	0.306860	0.197610
N251	N25	0.901200	0.215530	0.075190
N261	N26	0.862500	0.233640	0.133590
N271	N27	0.064300	0.326330	0.288720
N281	N28	0.913300	0.312960	0.255800
N291	N29	0.245200	0.002500	0.201840
N301	N30	0.254700	0.985700	0.291890
N311	N31	0.740700	0.164400	0.274760
N321	N32	0.732500	0.120340	0.189010
O171	O17	0.339100	0.006890	0.190530
O181	O18	0.197400	0.962100	0.203320
O191	O19	0.288000	0.028500	0.285910
O201	O20	0.316600	0.951400	0.302200
O211	O21	0.292700	0.266140	0.282790
O221	O22	0.442200	0.292280	0.313480
O231	O23	0.707800	0.890050	0.210780
O241	O24	0.806400	0.931260	0.168670
O251	O25	0.790900	0.203300	0.284140
O261	O26	0.785500	0.123600	0.273700
O271	O27	0.670400	0.157500	0.185830
O281	O28	0.815100	0.119100	0.175200
O291	O29	0.148100	0.232500	0.193130
O301	O30	0.281000	0.191300	0.163950
O311	O31	0.854200	0.852050	0.312920
O321	O32	0.001500	0.853380	0.350760
C591	C59	0.693200	0.981340	0.208370
C601	C60	0.411200	0.221910	0.024360
H371	H37	0.449200	0.224600	0.047100
C611	C61	0.304500	0.240460	0.020250
C621	C62	0.247000	0.236940	0.986640
H381	H38	0.175400	0.249700	0.984500
C631	C63	0.297500	0.214250	0.956350
C641	C64	0.404400	0.194710	0.959200
H391	H39	0.438000	0.179000	0.938800
C651	C65	0.459000	0.199320	0.993350
C661	C66	0.274400	0.256680	0.088000
H401	H40	0.327000	0.233300	0.097000
C671	C67	0.147000	0.313400	0.085610
H411	H41	0.094000	0.337500	0.092600
C681	C68	0.171000	0.300100	0.049980
H421	H42	0.137400	0.313100	0.028300
C691	C69	0.280000	0.191000	0.888700
H431	H43	0.350000	0.176600	0.886400
C701	C70	0.118100	0.216800	0.876080
H441	H44	0.052700	0.223500	0.863100
C711	C71	0.136300	0.228800	0.912800
H451	H45	0.088000	0.245300	0.929000
C721	C72	0.655700	0.209960	0.009820
H461	H46	0.648800	0.241900	0.021700
C731	C73	0.724000	0.140500	0.986450
H471	H47	0.775100	0.115600	0.979300
C741	C74	0.614800	0.137610	0.980340
H481	H48	0.576300	0.111000	0.968300
C751	C75	0.729000	0.307890	0.227360
H491	H49	0.699500	0.324100	0.248400
C761	C76	0.662900	0.294930	0.196630
C771	C77	0.704700	0.270380	0.165410
H501	H50	0.659700	0.262500	0.144900
C781	C78	0.815700	0.257970	0.165660
C791	C79	0.885000	0.270810	0.195500
H511	H51	0.959700	0.262500	0.195000
C801	C80	0.841200	0.295840	0.225660
C811	C81	0.466000	0.283750	0.178300
H521	H52	0.476000	0.255900	0.162100
C821	C82	0.391900	0.343700	0.210870
H531	H53	0.339000	0.365500	0.221100
C831	C83	0.498500	0.345210	0.219100
H541	H54	0.533800	0.367500	0.235900
C841	C84	0.836200	0.241900	0.097680
H551	H55	0.779300	0.263500	0.089500
C851	C85	0.973400	0.189600	0.097970
H561	H56	0.029700	0.167900	0.089800
C861	C86	0.950700	0.200000	0.133800
H571	H57	0.987500	0.187100	0.154900
C871	C87	0.019200	0.300360	0.260570
H581	H58	0.056500	0.276300	0.245900
C881	C88	0.982600	0.357110	0.302630
H591	H59	0.990400	0.380000	0.322700
C891	C89	0.888500	0.349100	0.282660
H601	H60	0.820500	0.365000	0.286400
C901	C90	0.201500	0.191300	0.185570
C911	C91	0.165100	0.141770	0.203640
C921	C92	0.215600	0.095330	0.194940
H611	H61	0.269700	0.094500	0.176600
C931	C93	0.187000	0.050670	0.213020
C941	C94	0.106100	0.048890	0.240880
C951	C95	0.054300	0.095350	0.248600
H621	H62	0.999000	0.095900	0.266500
C961	C96	0.081600	0.140720	0.230700
H631	H63	0.044200	0.171200	0.236600
C971	C97	0.071700	0.001400	0.261990
C981	C98	0.963400	0.984800	0.257350
H641	H64	0.916700	0.002600	0.240900
C991	C99	0.923800	0.942400	0.276750
H651	H65	0.851200	0.931900	0.272700
C1001	C100	0.988800	0.915480	0.301790
C1011	C101	0.097600	0.930870	0.306040
H661	H66	0.144300	0.912900	0.322400
C1021	C102	0.136400	0.972410	0.286300
C1031	C103	0.946700	0.869940	0.324160
C1041	C104	0.394000	0.261980	0.292570
C1051	C105	0.454100	0.214890	0.277330
C1061	C106	0.397600	0.175460	0.259120
H671	H67	0.321700	0.178300	0.255400
C1071	C107	0.452000	0.132000	0.246480
H681	H68	0.411600	0.105600	0.234900
C1081	C108	0.565500	0.126570	0.250520
C1091	C109	0.620500	0.166390	0.268930
C1101	C110	0.566700	0.210580	0.281440
H691	H69	0.606900	0.237300	0.292600
C1111	C111	0.613900	0.077290	0.235710
C1121	C112	0.576000	0.030200	0.249890
H701	H70	0.522700	0.030300	0.268500
C1131	C113	0.616000	0.983220	0.236960
H711	H71	0.590800	0.952500	0.247500
C1141	C114	0.728100	0.026790	0.193210
H721	H72	0.778200	0.026300	0.173600
C1151	C115	0.689700	0.073800	0.206630
C1161	C116	0.739200	0.930820	0.194040
Zn71	Zn7	0.217010	0.208520	0.665260
Zn81	Zn8	0.225350	0.173540	0.806970
Zn91	Zn9	0.899750	0.287110	0.518340
N331	N33	0.211800	0.213930	0.609450
N341	N34	0.252000	0.234990	0.551570
N351	N35	0.206900	0.306090	0.361050
N361	N36	0.240500	0.288470	0.420850
N371	N37	0.748800	0.314110	0.504790
N381	N38	0.571200	0.317540	0.495590
N391	N39	0.370400	0.194570	0.685150
N401	N40	0.547000	0.193140	0.697610
N411	N41	0.901200	0.284470	0.575190
N421	N42	0.862500	0.266360	0.633590
N431	N43	0.064300	0.173670	0.788720
N441	N44	0.913300	0.187040	0.755800
N451	N45	0.245200	0.497500	0.701840
N461	N46	0.254700	0.514300	0.791890
N471	N47	0.740700	0.335600	0.774760
N481	N48	0.732500	0.379660	0.689010
O331	O33	0.339100	0.493110	0.690530
O341	O34	0.197400	0.537900	0.703320
O351	O35	0.288000	0.471500	0.785910
O361	O36	0.316600	0.548600	0.802200
O371	O37	0.292700	0.233860	0.782790
O381	O38	0.442200	0.207720	0.813480
O391	O39	0.707800	0.609950	0.710780
O401	O40	0.806400	0.568740	0.668670
O411	O41	0.790900	0.296700	0.784140
O421	O42	0.785500	0.376400	0.773700
O431	O43	0.670400	0.342500	0.685830
O441	O44	0.815100	0.380900	0.675200
O451	O45	0.148100	0.267500	0.693130
O461	O46	0.281000	0.308700	0.663950
O471	O47	0.854200	0.647950	0.812920
O481	O48	0.001500	0.646620	0.850760
C1171	C117	0.693200	0.518660	0.708370
C1181	C118	0.411200	0.278090	0.524360
H731	H73	0.449200	0.275400	0.547100
C1191	C119	0.304500	0.259540	0.520250
C1201	C120	0.247000	0.263060	0.486640
H741	H74	0.175400	0.250300	0.484500
C1211	C121	0.297500	0.285750	0.456350
C1221	C122	0.404400	0.305290	0.459200
H751	H75	0.438000	0.321000	0.438800
C1231	C123	0.459000	0.300680	0.493350
C1241	C124	0.274400	0.243320	0.588000
H761	H76	0.327000	0.266700	0.597000
C1251	C125	0.147000	0.186600	0.585610
H771	H77	0.094000	0.162500	0.592600
C1261	C126	0.171000	0.199900	0.549980
H781	H78	0.137400	0.186900	0.528300
C1271	C127	0.280000	0.309000	0.388700
H791	H79	0.350000	0.323400	0.386400
C1281	C128	0.118100	0.283200	0.376080
H801	H80	0.052700	0.276500	0.363100
C1291	C129	0.136300	0.271200	0.412800
H811	H81	0.088000	0.254700	0.429000
C1301	C130	0.655700	0.290040	0.509820
H821	H82	0.648800	0.258100	0.521700
C1311	C131	0.724000	0.359500	0.486450
H831	H83	0.775100	0.384400	0.479300
C1321	C132	0.614800	0.362390	0.480340
H841	H84	0.576300	0.389000	0.468300
C1331	C133	0.729000	0.192110	0.727360
H851	H85	0.699500	0.175900	0.748400
C1341	C134	0.662900	0.205070	0.696630
C1351	C135	0.704700	0.229620	0.665410
H861	H86	0.659700	0.237500	0.644900
C1361	C136	0.815700	0.242030	0.665660
C1371	C137	0.885000	0.229190	0.695500
H871	H87	0.959700	0.237500	0.695000
C1381	C138	0.841200	0.204160	0.725660
C1391	C139	0.466000	0.216250	0.678300
H881	H88	0.476000	0.244100	0.662100
C1401	C140	0.391900	0.156300	0.710870
H891	H89	0.339000	0.134500	0.721100
C1411	C141	0.498500	0.154790	0.719100
H901	H90	0.533800	0.132500	0.735900
C1421	C142	0.836200	0.258100	0.597680
H911	H91	0.779300	0.236500	0.589500
C1431	C143	0.973400	0.310400	0.597970
H921	H92	0.029700	0.332100	0.589800
C1441	C144	0.950700	0.300000	0.633800
H931	H93	0.987500	0.312900	0.654900
C1451	C145	0.019200	0.199640	0.760570
H941	H94	0.056500	0.223700	0.745900
C1461	C146	0.982600	0.142890	0.802630
H951	H95	0.990400	0.120000	0.822700
C1471	C147	0.888500	0.150900	0.782660
H961	H96	0.820500	0.135000	0.786400
C1481	C148	0.201500	0.308700	0.685570
C1491	C149	0.165100	0.358230	0.703640
C1501	C150	0.215600	0.404670	0.694940
H971	H97	0.269700	0.405500	0.676600
C1511	C151	0.187000	0.449330	0.713020
C1521	C152	0.106100	0.451110	0.740880
C1531	C153	0.054300	0.404650	0.748600
H981	H98	0.999000	0.404100	0.766500
C1541	C154	0.081600	0.359280	0.730700
H991	H99	0.044200	0.328800	0.736600
C1551	C155	0.071700	0.498600	0.761990
C1561	C156	0.963400	0.515200	0.757350
H1001	H100	0.916700	0.497400	0.740900
C1571	C157	0.923800	0.557600	0.776750
H1011	H101	0.851200	0.568100	0.772700
C1581	C158	0.988800	0.584520	0.801790
C1591	C159	0.097600	0.569130	0.806040
H1021	H102	0.144300	0.587100	0.822400
C1601	C160	0.136400	0.527590	0.786300
C1611	C161	0.946700	0.630060	0.824160
C1621	C162	0.394000	0.238020	0.792570
C1631	C163	0.454100	0.285110	0.777330
C1641	C164	0.397600	0.324540	0.759120
H1031	H103	0.321700	0.321700	0.755400
C1651	C165	0.452000	0.368000	0.746480
H1041	H104	0.411600	0.394400	0.734900
C1661	C166	0.565500	0.373430	0.750520
C1671	C167	0.620500	0.333610	0.768930
C1681	C168	0.566700	0.289420	0.781440
H1051	H105	0.606900	0.262700	0.792600
C1691	C169	0.613900	0.422710	0.735710
C1701	C170	0.576000	0.469800	0.749890
H1061	H106	0.522700	0.469700	0.768500
C1711	C171	0.616000	0.516780	0.736960
H1071	H107	0.590800	0.547500	0.747500
C1721	C172	0.728100	0.473210	0.693210
H1081	H108	0.778200	0.473700	0.673600
C1731	C173	0.689700	0.426200	0.706630
C1741	C174	0.739200	0.569180	0.694040
Zn101	Zn10	0.782990	0.708520	0.834740
Zn111	Zn11	0.774650	0.673540	0.693030
Zn121	Zn12	0.100250	0.787110	0.981660
N491	N49	0.788200	0.713930	0.890550
N501	N50	0.748000	0.734990	0.948430
N511	N51	0.793100	0.806090	0.138950
N521	N52	0.759500	0.788470	0.079150
N531	N53	0.251200	0.814110	0.995210
N541	N54	0.428800	0.817540	0.004410
N551	N55	0.629600	0.694570	0.814850
N561	N56	0.453000	0.693140	0.802390
N571	N57	0.098800	0.784470	0.924810
N581	N58	0.137500	0.766360	0.866410
N591	N59	0.935700	0.673670	0.711280
N601	N60	0.086700	0.687040	0.744200
N611	N61	0.754800	0.997500	0.798160
N621	N62	0.745300	0.014300	0.708110
N631	N63	0.259300	0.835600	0.725240
N641	N64	0.267500	0.879660	0.810990
O491	O49	0.660900	0.993110	0.809470
O501	O50	0.802600	0.037900	0.796680
O511	O51	0.712000	0.971500	0.714090
O521	O52	0.683400	0.048600	0.697800
O531	O53	0.707300	0.733860	0.717210
O541	O54	0.557800	0.707720	0.686520
O551	O55	0.292200	0.109950	0.789220
O561	O56	0.193600	0.068740	0.831330
O571	O57	0.209100	0.796700	0.715860
O581	O58	0.214500	0.876400	0.726300
O591	O59	0.329600	0.842500	0.814170
O601	O60	0.184900	0.880900	0.824800
O611	O61	0.851900	0.767500	0.806870
O621	O62	0.719000	0.808700	0.836050
O631	O63	0.145800	0.147950	0.687080
O641	O64	0.998500	0.146620	0.649240
C1751	C175	0.306800	0.018660	0.791630
C1761	C176	0.588800	0.778090	0.975640
H1091	H109	0.550800	0.775400	0.952900
C1771	C177	0.695500	0.759540	0.979750
C1781	C178	0.753000	0.763060	0.013360
H1101	H110	0.824600	0.750300	0.015500
C1791	C179	0.702500	0.785750	0.043650
C1801	C180	0.595600	0.805290	0.040800
H1111	H111	0.562000	0.821000	0.061200
C1811	C181	0.541000	0.800680	0.006650
C1821	C182	0.725600	0.743320	0.912000
H1121	H112	0.673000	0.766700	0.903000
C1831	C183	0.853000	0.686600	0.914390
H1131	H113	0.906000	0.662500	0.907400
C1841	C184	0.829000	0.699900	0.950020
H1141	H114	0.862600	0.686900	0.971700
C1851	C185	0.720000	0.809000	0.111300
H1151	H115	0.650000	0.823400	0.113600
C1861	C186	0.881900	0.783200	0.123920
H1161	H116	0.947300	0.776500	0.136900
C1871	C187	0.863700	0.771200	0.087200
H1171	H117	0.912000	0.754700	0.071000
C1881	C188	0.344300	0.790040	0.990180
H1181	H118	0.351200	0.758100	0.978300
C1891	C189	0.276000	0.859500	0.013550
H1191	H119	0.224900	0.884400	0.020700
C1901	C190	0.385200	0.862390	0.019660
H1201	H120	0.423700	0.889000	0.031700
C1911	C191	0.271000	0.692110	0.772640
H1211	H121	0.300500	0.675900	0.751600
C1921	C192	0.337100	0.705070	0.803370
C1931	C193	0.295300	0.729620	0.834590
H1221	H122	0.340300	0.737500	0.855100
C1941	C194	0.184300	0.742030	0.834340
C1951	C195	0.115000	0.729190	0.804500
H1231	H123	0.040300	0.737500	0.805000
C1961	C196	0.158800	0.704160	0.774340
C1971	C197	0.534000	0.716250	0.821700
H1241	H124	0.524000	0.744100	0.837900
C1981	C198	0.608100	0.656300	0.789130
H1251	H125	0.661000	0.634500	0.778900
C1991	C199	0.501500	0.654790	0.780900
H1261	H126	0.466200	0.632500	0.764100
C2001	C200	0.163800	0.758100	0.902320
H1271	H127	0.220700	0.736500	0.910500
C2011	C201	0.026600	0.810400	0.902030
H1281	H128	0.970300	0.832100	0.910200
C2021	C202	0.049300	0.800000	0.866200
H1291	H129	0.012500	0.812900	0.845100
C2031	C203	0.980800	0.699640	0.739430
H1301	H130	0.943500	0.723700	0.754100
C2041	C204	0.017400	0.642890	0.697370
H1311	H131	0.009600	0.620000	0.677300
C2051	C205	0.111500	0.650900	0.717340
H1321	H132	0.179500	0.635000	0.713600
C2061	C206	0.798500	0.808700	0.814430
C2071	C207	0.834900	0.858230	0.796360
C2081	C208	0.784400	0.904670	0.805060
H1331	H133	0.730300	0.905500	0.823400
C2091	C209	0.813000	0.949330	0.786980
C2101	C210	0.893900	0.951110	0.759120
C2111	C211	0.945700	0.904650	0.751400
H1341	H134	0.001000	0.904100	0.733500
C2121	C212	0.918400	0.859280	0.769300
H1351	H135	0.955800	0.828800	0.763400
C2131	C213	0.928300	0.998600	0.738010
C2141	C214	0.036600	0.015200	0.742650
H1361	H136	0.083300	0.997400	0.759100
C2151	C215	0.076200	0.057600	0.723250
H1371	H137	0.148800	0.068100	0.727300
C2161	C216	0.011200	0.084520	0.698210
C2171	C217	0.902400	0.069130	0.693960
H1381	H138	0.855700	0.087100	0.677600
C2181	C218	0.863600	0.027590	0.713700
C2191	C219	0.053300	0.130060	0.675840
C2201	C220	0.606000	0.738020	0.707430
C2211	C221	0.545900	0.785110	0.722670
C2221	C222	0.602400	0.824540	0.740880
H1391	H139	0.678300	0.821700	0.744600
C2231	C223	0.548000	0.868000	0.753520
H1401	H140	0.588400	0.894400	0.765100
C2241	C224	0.434500	0.873430	0.749480
C2251	C225	0.379500	0.833610	0.731070
C2261	C226	0.433300	0.789420	0.718560
H1411	H141	0.393100	0.762700	0.707400
C2271	C227	0.386100	0.922710	0.764290
C2281	C228	0.424000	0.969800	0.750110
H1421	H142	0.477300	0.969700	0.731500
C2291	C229	0.384000	0.016780	0.763040
H1431	H143	0.409200	0.047500	0.752500
C2301	C230	0.271900	0.973210	0.806790
H1441	H144	0.221800	0.973700	0.826400
C2311	C231	0.310300	0.926200	0.793370
C2321	C232	0.260800	0.069180	0.805960
