data_UMUXEG_clean_PM
_symmetry_space_group_name_H-M	'P1'
_cell_length_a	15.222900
_cell_length_b	15.222900
_cell_length_c	6.886200
_cell_angle_alpha	90.000000
_cell_angle_beta	90.000000
_cell_angle_gamma	120.000000
_symmetry_Int_Tables_number 1

loop_
_symmetry_equiv_pos_as_xyz
'x,y,z'

loop_
_atom_site_label
_atom_site_type_symbol
_atom_site_fract_x
_atom_site_fract_y
_atom_site_fract_z
C11	C1	0.085600	0.460600	0.965000
C21	C2	0.020000	0.428000	0.145000
C31	C3	0.539400	0.625000	0.965000
C41	C4	0.572000	0.592000	0.145000
C51	C5	0.375000	0.914400	0.965000
C61	C6	0.408000	0.980000	0.145000
C71	C7	0.460600	0.085600	0.035000
C81	C8	0.428000	0.020000	0.855000
C91	C9	0.625000	0.539400	0.035000
C101	C10	0.592000	0.572000	0.855000
C111	C11	0.914400	0.375000	0.035000
C121	C12	0.980000	0.408000	0.855000
C131	C13	0.914400	0.539400	0.035000
C141	C14	0.980000	0.572000	0.855000
C151	C15	0.460600	0.375000	0.035000
C161	C16	0.428000	0.408000	0.855000
C171	C17	0.625000	0.085600	0.035000
C181	C18	0.592000	0.020000	0.855000
C191	C19	0.539400	0.914400	0.965000
C201	C20	0.572000	0.980000	0.145000
C211	C21	0.375000	0.460600	0.965000
C221	C22	0.408000	0.428000	0.145000
C231	C23	0.085600	0.625000	0.965000
C241	C24	0.020000	0.592000	0.145000
C251	C25	0.108000	0.554000	0.887000
C261	C26	0.995000	0.497500	0.765000
N11	N1	0.085700	0.542850	0.095700
Cu11	Cu1	0.220460	0.610230	0.247200
C271	C27	0.446000	0.554000	0.887000
C281	C28	0.502500	0.497500	0.765000
N21	N2	0.457150	0.542850	0.095700
Cu21	Cu2	0.389770	0.610230	0.247200
C291	C29	0.446000	0.892000	0.887000
C301	C30	0.502500	0.005000	0.765000
N31	N3	0.457150	0.914300	0.095700
Cu31	Cu3	0.389770	0.779540	0.247200
C311	C31	0.554000	0.108000	0.113000
C321	C32	0.497500	0.995000	0.235000
N41	N4	0.542850	0.085700	0.904300
Cu41	Cu4	0.610230	0.220460	0.752800
C331	C33	0.554000	0.446000	0.113000
C341	C34	0.497500	0.502500	0.235000
N51	N5	0.542850	0.457150	0.904300
Cu51	Cu5	0.610230	0.389770	0.752800
C351	C35	0.892000	0.446000	0.113000
C361	C36	0.005000	0.502500	0.235000
N61	N6	0.914300	0.457150	0.904300
Cu61	Cu6	0.779540	0.389770	0.752800
C371	C37	0.333330	0.666670	0.860000
N71	N7	0.333330	0.666670	0.018000
Cu71	Cu7	0.333330	0.666670	0.580600
C381	C38	0.666670	0.333330	0.140000
N81	N8	0.666670	0.333330	0.982000
Cu81	Cu8	0.666670	0.333330	0.419400
I11	I1	0.235080	0.470170	0.463090
I21	I2	0.529830	0.764910	0.463090
I31	I3	0.235090	0.764920	0.463090
I41	I4	0.470170	0.235080	0.536910
I51	I5	0.764910	0.529830	0.536910
I61	I6	0.764920	0.235090	0.536910
