data_UNABER_clean_PM
_symmetry_space_group_name_H-M	'P1'
_cell_length_a	13.571500
_cell_length_b	13.571500
_cell_length_c	8.712500
_cell_angle_alpha	90.000000
_cell_angle_beta	90.000000
_cell_angle_gamma	120.000000
_symmetry_Int_Tables_number 1

loop_
_symmetry_equiv_pos_as_xyz
'x,y,z'

loop_
_atom_site_label
_atom_site_type_symbol
_atom_site_fract_x
_atom_site_fract_y
_atom_site_fract_z
Mo11	Mo1	0.666670	0.333330	0.343800
Mo21	Mo2	0.333330	0.666670	0.843800
Cu11	Cu1	0.561300	0.438710	0.478140
N11	N1	0.512400	0.487600	0.271400
C11	C1	0.486000	0.514000	0.159800
Cu21	Cu2	0.561300	0.122590	0.478140
N21	N2	0.512400	0.024800	0.271400
C21	C2	0.486000	0.972000	0.159800
Cu31	Cu3	0.877410	0.438710	0.478140
N31	N3	0.975200	0.487600	0.271400
C31	C3	0.028000	0.514000	0.159800
Cu41	Cu4	0.438700	0.561300	0.978140
N41	N4	0.487600	0.512400	0.771400
C41	C4	0.514000	0.486000	0.659800
Cu51	Cu5	0.438700	0.877410	0.978140
N51	N5	0.487600	0.975200	0.771400
C51	C5	0.514000	0.028000	0.659800
Cu61	Cu6	0.122590	0.561300	0.978140
N61	N6	0.024800	0.512400	0.771400
C61	C6	0.972000	0.486000	0.659800
S11	S1	0.756280	0.512560	0.436820
S21	S2	0.487440	0.243720	0.436820
S31	S3	0.756280	0.243720	0.436820
S41	S4	0.243720	0.487440	0.936820
S51	S5	0.512560	0.756280	0.936820
S61	S6	0.243720	0.756280	0.936820
H11	H1	0.134000	0.383900	0.632600
H21	H2	0.313000	0.508900	0.421100
C71	C7	0.234700	0.289400	0.383000
H31	H3	0.191600	0.210700	0.416000
H41	H4	0.242700	0.292000	0.271900
H51	H5	0.309400	0.325800	0.429900
H61	H6	0.249900	0.383900	0.632600
H71	H7	0.195900	0.508900	0.421100
C81	C8	0.054700	0.289400	0.383000
H81	H8	0.019100	0.210700	0.416000
H91	H9	0.049300	0.292000	0.271900
H101	H10	0.016400	0.325800	0.429900
N71	N7	0.174550	0.349100	0.428200
C91	C9	0.172500	0.345000	0.593700
H111	H11	0.133150	0.266300	0.627300
C101	C10	0.236000	0.472000	0.381300
H121	H12	0.238650	0.477300	0.270200
H131	H13	0.616100	0.750100	0.632600
H141	H14	0.491100	0.804100	0.421100
C111	C11	0.710600	0.945300	0.383000
H151	H15	0.789300	0.980900	0.416000
H161	H16	0.708000	0.950700	0.271900
H171	H17	0.674200	0.983600	0.429900
H181	H18	0.616100	0.866000	0.632600
H191	H19	0.491100	0.687000	0.421100
C121	C12	0.710600	0.765300	0.383000
H201	H20	0.789300	0.808400	0.416000
H211	H21	0.708000	0.757300	0.271900
H221	H22	0.674200	0.690600	0.429900
N81	N8	0.650900	0.825450	0.428200
C131	C13	0.655000	0.827500	0.593700
H231	H23	0.733700	0.866850	0.627300
C141	C14	0.528000	0.764000	0.381300
H241	H24	0.522700	0.761350	0.270200
H251	H25	0.249900	0.866000	0.632600
H261	H26	0.195900	0.687000	0.421100
C151	C15	0.054700	0.765300	0.383000
H271	H27	0.019100	0.808400	0.416000
H281	H28	0.049300	0.757300	0.271900
H291	H29	0.016400	0.690600	0.429900
H301	H30	0.134000	0.750100	0.632600
H311	H31	0.313000	0.804100	0.421100
C161	C16	0.234700	0.945300	0.383000
H321	H32	0.191600	0.980900	0.416000
H331	H33	0.242700	0.950700	0.271900
H341	H34	0.309400	0.983600	0.429900
N91	N9	0.174550	0.825450	0.428200
C171	C17	0.172500	0.827500	0.593700
H351	H35	0.133150	0.866850	0.627300
C181	C18	0.236000	0.764000	0.381300
H361	H36	0.238650	0.761350	0.270200
H371	H37	0.866000	0.616100	0.132600
H381	H38	0.687000	0.491100	0.921100
C191	C19	0.765300	0.710600	0.883000
H391	H39	0.808400	0.789300	0.916000
H401	H40	0.757300	0.708000	0.771900
H411	H41	0.690600	0.674200	0.929900
H421	H42	0.750100	0.616100	0.132600
H431	H43	0.804100	0.491100	0.921100
C201	C20	0.945300	0.710600	0.883000
H441	H44	0.980900	0.789300	0.916000
H451	H45	0.950700	0.708000	0.771900
H461	H46	0.983600	0.674200	0.929900
N101	N10	0.825450	0.650900	0.928200
C211	C21	0.827500	0.655000	0.093700
H471	H47	0.866850	0.733700	0.127300
C221	C22	0.764000	0.528000	0.881300
H481	H48	0.761350	0.522700	0.770200
H491	H49	0.383900	0.249900	0.132600
H501	H50	0.508900	0.195900	0.921100
C231	C23	0.289400	0.054700	0.883000
H511	H51	0.210700	0.019100	0.916000
H521	H52	0.292000	0.049300	0.771900
H531	H53	0.325800	0.016400	0.929900
H541	H54	0.383900	0.134000	0.132600
H551	H55	0.508900	0.313000	0.921100
C241	C24	0.289400	0.234700	0.883000
H561	H56	0.210700	0.191600	0.916000
H571	H57	0.292000	0.242700	0.771900
H581	H58	0.325800	0.309400	0.929900
N111	N11	0.349100	0.174550	0.928200
C251	C25	0.345000	0.172500	0.093700
H591	H59	0.266300	0.133150	0.127300
C261	C26	0.472000	0.236000	0.881300
H601	H60	0.477300	0.238650	0.770200
H611	H61	0.750100	0.134000	0.132600
H621	H62	0.804100	0.313000	0.921100
C271	C27	0.945300	0.234700	0.883000
H631	H63	0.980900	0.191600	0.916000
H641	H64	0.950700	0.242700	0.771900
H651	H65	0.983600	0.309400	0.929900
H661	H66	0.866000	0.249900	0.132600
H671	H67	0.687000	0.195900	0.921100
C281	C28	0.765300	0.054700	0.883000
H681	H68	0.808400	0.019100	0.916000
H691	H69	0.757300	0.049300	0.771900
H701	H70	0.690600	0.016400	0.929900
N121	N12	0.825450	0.174550	0.928200
C291	C29	0.827500	0.172500	0.093700
H711	H71	0.866850	0.133150	0.127300
C301	C30	0.764000	0.236000	0.881300
H721	H72	0.761350	0.238650	0.770200
