data_UNABIV_charged_PM
_symmetry_space_group_name_H-M	'P1'
_cell_length_a	13.761900
_cell_length_b	15.394900
_cell_length_c	17.350000
_cell_angle_alpha	98.347700
_cell_angle_beta	90.000000
_cell_angle_gamma	116.549000
_symmetry_Int_Tables_number 1

loop_
_symmetry_equiv_pos_as_xyz
'x,y,z'

loop_
_atom_site_label
_atom_site_type_symbol
_atom_site_fract_x
_atom_site_fract_y
_atom_site_fract_z
Cu11	Cu1	0.476220	0.179180	0.734280
Cu21	Cu2	0.470050	0.377980	0.622120
Cu31	Cu3	0.723570	0.421400	0.735750
Cu41	Cu4	0.297040	0.820820	0.765720
Cu51	Cu5	0.092070	0.622020	0.877880
Cu61	Cu6	0.302170	0.578600	0.764250
Cu71	Cu7	0.523780	0.820820	0.265720
Cu81	Cu8	0.529950	0.622020	0.377880
Cu91	Cu9	0.276430	0.578600	0.264250
Cu101	Cu10	0.702960	0.179180	0.234280
Cu111	Cu11	0.907930	0.377980	0.122120
Cu121	Cu12	0.697830	0.421400	0.235750
Mo11	Mo1	0.590050	0.279540	0.621660
Mo21	Mo2	0.310510	0.720460	0.878340
Mo31	Mo3	0.409950	0.720460	0.378340
Mo41	Mo4	0.689490	0.279540	0.121660
H11	H1	0.261600	0.344600	0.537200
H21	H2	0.172700	0.294200	0.415700
H31	H3	0.449200	0.316400	0.325800
H41	H4	0.531400	0.371400	0.448800
H51	H5	0.140100	0.322800	0.294700
H61	H6	0.051900	0.267000	0.171100
H71	H7	0.233800	0.141200	0.106800
H81	H8	0.325100	0.190600	0.227800
H91	H9	0.391300	0.328800	0.778900
H101	H10	0.362400	0.418200	0.883600
H111	H11	0.429200	0.261400	0.020800
H121	H12	0.462800	0.179400	0.910500
H131	H13	0.399600	0.450600	0.224000
H141	H14	0.427700	0.358200	0.119800
H151	H15	0.315300	0.485000	0.980500
H161	H16	0.295600	0.575200	0.090800
H171	H17	0.917000	0.655400	0.962800
H181	H18	0.878500	0.705800	0.084300
H191	H19	0.132800	0.683600	0.174200
H201	H20	0.160000	0.628600	0.051200
H211	H21	0.817300	0.677200	0.205300
H221	H22	0.784900	0.733000	0.328900
H231	H23	0.092600	0.858800	0.393200
H241	H24	0.134500	0.809400	0.272200
H251	H25	0.062500	0.671200	0.721100
H261	H26	0.944200	0.581800	0.616400
H271	H27	0.167800	0.738600	0.479200
H281	H28	0.283400	0.820600	0.589500
H291	H29	0.949000	0.549400	0.276000
H301	H30	0.069500	0.641800	0.380200
H311	H31	0.830300	0.515000	0.519500
H321	H32	0.720400	0.424800	0.409200
H331	H33	0.738400	0.655400	0.462800
H341	H34	0.827300	0.705800	0.584300
H351	H35	0.550800	0.683600	0.674200
H361	H36	0.468600	0.628600	0.551200
H371	H37	0.859900	0.677200	0.705300
H381	H38	0.948100	0.733000	0.828900
H391	H39	0.766200	0.858800	0.893200
H401	H40	0.674900	0.809400	0.772200
H411	H41	0.608700	0.671200	0.221100
H421	H42	0.637600	0.581800	0.116400
H431	H43	0.570800	0.738600	0.979200
H441	H44	0.537200	0.820600	0.089500
H451	H45	0.600400	0.549400	0.776000
H461	H46	0.572300	0.641800	0.880200
H471	H47	0.684700	0.515000	0.019500
H481	H48	0.704400	0.424800	0.909200
H491	H49	0.083000	0.344600	0.037200
H501	H50	0.121500	0.294200	0.915700
H511	H51	0.867200	0.316400	0.825800
H521	H52	0.840000	0.371400	0.948800
H531	H53	0.182700	0.322800	0.794700
H541	H54	0.215100	0.267000	0.671100
H551	H55	0.907400	0.141200	0.606800
H561	H56	0.865500	0.190600	0.727800
H571	H57	0.937500	0.328800	0.278900
H581	H58	0.055800	0.418200	0.383600
H591	H59	0.832200	0.261400	0.520800
H601	H60	0.716600	0.179400	0.410500
H611	H61	0.051000	0.450600	0.724000
H621	H62	0.930500	0.358200	0.619800
H631	H63	0.169700	0.485000	0.480500
H641	H64	0.279600	0.575200	0.590800
C11	C1	0.300200	0.339400	0.494200
C21	C2	0.245800	0.308600	0.421000
C31	C3	0.300200	0.298600	0.354600
C41	C4	0.408900	0.322200	0.367500
C51	C5	0.457700	0.354400	0.442400
C61	C6	0.243300	0.263600	0.276300
C71	C7	0.160700	0.285400	0.257600
C81	C8	0.107400	0.251200	0.182700
C91	C9	0.213500	0.177400	0.145200
C101	C10	0.269900	0.207600	0.218100
C111	C11	0.401300	0.316000	0.828300
C121	C12	0.382100	0.369400	0.891100
C131	C13	0.391700	0.351000	0.966000
C141	C14	0.422200	0.277600	0.972200
C151	C15	0.442100	0.228200	0.905100
C161	C16	0.382100	0.457200	0.174100
C171	C17	0.399700	0.401400	0.111800
C181	C18	0.333800	0.476600	0.029500
C191	C19	0.321000	0.529600	0.096500
C201	C20	0.375100	0.410400	0.036800
C211	C21	0.406900	0.035800	0.743000
C221	C22	0.407100	0.450800	0.684800
C231	C23	0.960800	0.660600	0.005800
C241	C24	0.937200	0.691400	0.079000
C251	C25	0.001600	0.701400	0.145400
C261	C26	0.086700	0.677800	0.132500
C271	C27	0.103300	0.645600	0.057600
C281	C28	0.979700	0.736400	0.223700
C291	C29	0.875300	0.714600	0.242400
C301	C30	0.856200	0.748800	0.317300
C311	C31	0.036100	0.822600	0.354800
C321	C32	0.062300	0.792400	0.281900
C331	C33	0.085300	0.684000	0.671700
C341	C34	0.012700	0.630600	0.608900
C351	C35	0.040700	0.649000	0.534000
C361	C36	0.144600	0.722400	0.527800
C371	C37	0.213900	0.771800	0.594900
C381	C38	0.924900	0.542800	0.325900
C391	C39	0.998300	0.598600	0.388200
C401	C40	0.857200	0.523400	0.470500
C411	C41	0.791400	0.470400	0.403500
C421	C42	0.964700	0.589600	0.463200
C431	C43	0.371100	0.964200	0.757000
C441	C44	0.956300	0.549200	0.815200
C451	C45	0.699800	0.660600	0.505800
C461	C46	0.754200	0.691400	0.579000
C471	C47	0.699800	0.701400	0.645400
C481	C48	0.591100	0.677800	0.632500
C491	C49	0.542300	0.645600	0.557600
C501	C50	0.756700	0.736400	0.723700
C511	C51	0.839300	0.714600	0.742400
C521	C52	0.892600	0.748800	0.817300
C531	C53	0.786500	0.822600	0.854800
C541	C54	0.730100	0.792400	0.781900
C551	C55	0.598700	0.684000	0.171700
C561	C56	0.617900	0.630600	0.108900
C571	C57	0.608300	0.649000	0.034000
C581	C58	0.577800	0.722400	0.027800
C591	C59	0.557900	0.771800	0.094900
C601	C60	0.617900	0.542800	0.825900
C611	C61	0.600300	0.598600	0.888200
C621	C62	0.666200	0.523400	0.970500
C631	C63	0.679000	0.470400	0.903500
C641	C64	0.624900	0.589600	0.963200
C651	C65	0.593100	0.964200	0.257000
C661	C66	0.592900	0.549200	0.315200
C671	C67	0.039200	0.339400	0.994200
C681	C68	0.062800	0.308600	0.921000
C691	C69	0.998400	0.298600	0.854600
C701	C70	0.913300	0.322200	0.867500
C711	C71	0.896700	0.354400	0.942400
C721	C72	0.020300	0.263600	0.776300
C731	C73	0.124700	0.285400	0.757600
C741	C74	0.143800	0.251200	0.682700
C751	C75	0.963900	0.177400	0.645200
C761	C76	0.937700	0.207600	0.718100
C771	C77	0.914700	0.316000	0.328300
C781	C78	0.987300	0.369400	0.391100
C791	C79	0.959300	0.351000	0.466000
C801	C80	0.855400	0.277600	0.472200
C811	C81	0.786100	0.228200	0.405100
C821	C82	0.075100	0.457200	0.674100
C831	C83	0.001700	0.401400	0.611800
C841	C84	0.142800	0.476600	0.529500
C851	C85	0.208600	0.529600	0.596500
C861	C86	0.035300	0.410400	0.536800
C871	C87	0.628900	0.035800	0.243000
C881	C88	0.043700	0.450800	0.184800
S11	S1	0.655780	0.444140	0.624770
S21	S2	0.407400	0.212360	0.628230
S31	S3	0.661940	0.255380	0.729220
S41	S4	0.211640	0.555860	0.875230
S51	S5	0.195040	0.787640	0.871770
S61	S6	0.406560	0.744620	0.770780
S71	S7	0.344220	0.555860	0.375230
S81	S8	0.592600	0.787640	0.371770
S91	S9	0.338060	0.744620	0.270780
S101	S10	0.788360	0.444140	0.124770
S111	S11	0.804960	0.212360	0.128230
S121	S12	0.593440	0.255380	0.229220
N11	N1	0.341900	0.520200	0.168100
N21	N2	0.433100	0.247200	0.832700
N31	N3	0.406400	0.362600	0.506600
N41	N4	0.133400	0.196600	0.127200
N51	N5	0.371400	0.498000	0.721400
N61	N6	0.821700	0.479800	0.331900
N71	N7	0.185900	0.752800	0.667300
N81	N8	0.043800	0.637400	0.993400
N91	N9	0.936800	0.803400	0.372800
N101	N10	0.873400	0.502000	0.778600
N111	N11	0.658100	0.479800	0.831900
N121	N12	0.566900	0.752800	0.167300
N131	N13	0.593600	0.637400	0.493400
N141	N14	0.866600	0.803400	0.872800
N151	N15	0.628600	0.502000	0.278600
N161	N16	0.178300	0.520200	0.668100
N171	N17	0.814100	0.247200	0.332700
N181	N18	0.956200	0.362600	0.006600
N191	N19	0.063200	0.196600	0.627200
N201	N20	0.126600	0.498000	0.221400
O11	O1	0.623300	0.227600	0.538300
O21	O2	0.395700	0.772400	0.961700
O31	O3	0.376700	0.772400	0.461700
O41	O4	0.604300	0.227600	0.038300
