data_UNAGOH_clean_PM
_symmetry_space_group_name_H-M	'P1'
_cell_length_a	9.165700
_cell_length_b	15.584900
_cell_length_c	13.530200
_cell_angle_alpha	90.000000
_cell_angle_beta	107.469000
_cell_angle_gamma	90.000000
_symmetry_Int_Tables_number 1

loop_
_symmetry_equiv_pos_as_xyz
'x,y,z'

loop_
_atom_site_label
_atom_site_type_symbol
_atom_site_fract_x
_atom_site_fract_y
_atom_site_fract_z
Zn11	Zn1	0.379080	0.551850	0.248140
Zn21	Zn2	0.126680	0.745160	0.252150
O11	O1	0.029400	0.640200	0.182100
O21	O2	0.190000	0.551800	0.135100
C11	C1	0.929300	0.513900	0.092400
C21	C2	0.937100	0.453000	0.019100
H11	H1	0.025900	0.448400	0.998400
C31	C3	0.813400	0.398700	0.976400
C41	C4	0.683900	0.404800	0.009600
H21	H2	0.601600	0.367000	0.982300
C51	C5	0.674200	0.465900	0.082600
C61	C6	0.798400	0.521200	0.123000
H31	H3	0.792900	0.563600	0.171200
C71	C7	0.060400	0.573900	0.141100
O31	O3	0.937500	0.332100	0.864200
C81	C8	0.816600	0.334400	0.894900
O41	O4	0.706200	0.286900	0.856300
O51	O5	0.429900	0.419400	0.090900
C91	C9	0.534800	0.473600	0.118400
O61	O6	0.536900	0.536600	0.178800
O71	O7	0.477400	0.656900	0.319000
O81	O8	0.317800	0.746100	0.365500
C101	C10	0.580900	0.780300	0.412400
C111	C11	0.571600	0.842100	0.485100
H41	H4	0.483100	0.846400	0.506300
C121	C12	0.694600	0.897300	0.526100
C131	C13	0.824600	0.891500	0.493900
H51	H5	0.906100	0.929900	0.520500
C141	C14	0.835100	0.829500	0.422700
C151	C15	0.712400	0.773700	0.382500
H61	H6	0.719100	0.731300	0.334700
C161	C16	0.447800	0.724200	0.362200
O91	O9	0.569400	0.964700	0.638100
C171	C17	0.688500	0.963600	0.606500
O101	O10	0.796700	0.013500	0.642200
O111	O11	0.076600	0.875700	0.410500
C181	C18	0.973700	0.823200	0.385000
O121	O12	0.972200	0.758600	0.324400
Zn31	Zn3	0.620920	0.051850	0.751860
Zn41	Zn4	0.873320	0.245160	0.747850
O131	O13	0.970600	0.140200	0.817900
O141	O14	0.810000	0.051800	0.864900
C191	C19	0.070700	0.013900	0.907600
C201	C20	0.062900	0.953000	0.980900
H71	H7	0.974100	0.948400	0.001600
C211	C21	0.186600	0.898700	0.023600
C221	C22	0.316100	0.904800	0.990400
H81	H8	0.398400	0.867000	0.017700
C231	C23	0.325800	0.965900	0.917400
C241	C24	0.201600	0.021200	0.877000
H91	H9	0.207100	0.063600	0.828800
C251	C25	0.939600	0.073900	0.858900
O151	O15	0.062500	0.832100	0.135800
C261	C26	0.183400	0.834400	0.105100
O161	O16	0.293800	0.786900	0.143700
O171	O17	0.570100	0.919400	0.909100
C271	C27	0.465200	0.973600	0.881600
O181	O18	0.463100	0.036600	0.821200
O191	O19	0.522600	0.156900	0.681000
O201	O20	0.682200	0.246100	0.634500
C281	C28	0.419100	0.280300	0.587600
C291	C29	0.428400	0.342100	0.514900
H101	H10	0.516900	0.346400	0.493700
C301	C30	0.305400	0.397300	0.473900
C311	C31	0.175400	0.391500	0.506100
H111	H11	0.093900	0.429900	0.479500
C321	C32	0.164900	0.329500	0.577300
C331	C33	0.287600	0.273700	0.617500
H121	H12	0.280900	0.231300	0.665300
C341	C34	0.552200	0.224200	0.637800
O211	O21	0.430600	0.464700	0.361900
C351	C35	0.311500	0.463600	0.393500
O221	O22	0.203300	0.513500	0.357800
O231	O23	0.923400	0.375700	0.589500
C361	C36	0.026300	0.323200	0.615000
O241	O24	0.027800	0.258600	0.675600
