data_UNECOH_clean_PM
_symmetry_space_group_name_H-M	'P1'
_cell_length_a	20.461000
_cell_length_b	20.461000
_cell_length_c	17.827900
_cell_angle_alpha	90.000000
_cell_angle_beta	90.000000
_cell_angle_gamma	90.000000
_symmetry_Int_Tables_number 1

loop_
_symmetry_equiv_pos_as_xyz
'x,y,z'

loop_
_atom_site_label
_atom_site_type_symbol
_atom_site_fract_x
_atom_site_fract_y
_atom_site_fract_z
Co11	Co1	0.257750	0.118940	0.650660
O11	O1	0.235790	0.129010	0.755740
O21	O2	0.312720	0.058400	0.766750
O31	O3	0.258670	0.965010	0.097710
O41	O4	0.338610	0.945420	0.012770
O51	O5	0.173020	0.192790	0.097100
O61	O6	0.160410	0.242980	0.988410
C11	C1	0.271440	0.094000	0.794310
C21	C2	0.262240	0.094210	0.878180
C31	C3	0.228040	0.144160	0.913520
H11	H1	0.213400	0.179700	0.885600
C41	C4	0.215580	0.141620	0.989560
C51	C5	0.237400	0.088300	0.031010
H21	H2	0.228900	0.086200	0.082200
C61	C6	0.271590	0.038560	0.996510
C71	C7	0.284320	0.042140	0.919460
H31	H3	0.307900	0.009000	0.896100
C81	C8	0.180780	0.197400	0.027710
C91	C9	0.291500	0.977180	0.038880
Co21	Co2	0.757750	0.618940	0.150660
O71	O7	0.735790	0.629010	0.255740
O81	O8	0.812720	0.558400	0.266750
O91	O9	0.758670	0.465010	0.597710
O101	O10	0.838610	0.445420	0.512770
O111	O11	0.673020	0.692790	0.597100
O121	O12	0.660410	0.742980	0.488410
C101	C10	0.771440	0.594000	0.294310
C111	C11	0.762240	0.594210	0.378180
C121	C12	0.728040	0.644160	0.413520
H41	H4	0.713400	0.679700	0.385600
C131	C13	0.715580	0.641620	0.489560
C141	C14	0.737400	0.588300	0.531010
H51	H5	0.728900	0.586200	0.582200
C151	C15	0.771590	0.538560	0.496510
C161	C16	0.784320	0.542140	0.419460
H61	H6	0.807900	0.509000	0.396100
C171	C17	0.680780	0.697400	0.527710
C181	C18	0.791500	0.477180	0.538880
Co31	Co3	0.742250	0.881060	0.650660
O131	O13	0.764210	0.870990	0.755740
O141	O14	0.687280	0.941600	0.766750
O151	O15	0.741330	0.034990	0.097710
O161	O16	0.661390	0.054580	0.012770
O171	O17	0.826980	0.807210	0.097100
O181	O18	0.839590	0.757020	0.988410
C191	C19	0.728560	0.906000	0.794310
C201	C20	0.737760	0.905790	0.878180
C211	C21	0.771960	0.855840	0.913520
H71	H7	0.786600	0.820300	0.885600
C221	C22	0.784420	0.858380	0.989560
C231	C23	0.762600	0.911700	0.031010
H81	H8	0.771100	0.913800	0.082200
C241	C24	0.728410	0.961440	0.996510
C251	C25	0.715680	0.957860	0.919460
H91	H9	0.692100	0.991000	0.896100
C261	C26	0.819220	0.802600	0.027710
C271	C27	0.708500	0.022820	0.038880
Co41	Co4	0.242250	0.381060	0.150660
O191	O19	0.264210	0.370990	0.255740
O201	O20	0.187280	0.441600	0.266750
O211	O21	0.241330	0.534990	0.597710
O221	O22	0.161390	0.554580	0.512770
O231	O23	0.326980	0.307210	0.597100
O241	O24	0.339590	0.257020	0.488410
C281	C28	0.228560	0.406000	0.294310
C291	C29	0.237760	0.405790	0.378180
C301	C30	0.271960	0.355840	0.413520
H101	H10	0.286600	0.320300	0.385600
C311	C31	0.284420	0.358380	0.489560
C321	C32	0.262600	0.411700	0.531010
H111	H11	0.271100	0.413800	0.582200
C331	C33	0.228410	0.461440	0.496510
C341	C34	0.215680	0.457860	0.419460
H121	H12	0.192100	0.491000	0.396100
C351	C35	0.319220	0.302600	0.527710
C361	C36	0.208500	0.522820	0.538880
Co51	Co5	0.881060	0.257750	0.650660
O251	O25	0.870990	0.235790	0.755740
O261	O26	0.941600	0.312720	0.766750
O271	O27	0.034990	0.258670	0.097710
O281	O28	0.054580	0.338610	0.012770
O291	O29	0.807210	0.173020	0.097100
O301	O30	0.757020	0.160410	0.988410
C371	C37	0.906000	0.271440	0.794310
C381	C38	0.905790	0.262240	0.878180
C391	C39	0.855840	0.228040	0.913520
H131	H13	0.820300	0.213400	0.885600
C401	C40	0.858380	0.215580	0.989560
C411	C41	0.911700	0.237400	0.031010
H141	H14	0.913800	0.228900	0.082200
C421	C42	0.961440	0.271590	0.996510
C431	C43	0.957860	0.284320	0.919460
H151	H15	0.991000	0.307900	0.896100
C441	C44	0.802600	0.180780	0.027710
C451	C45	0.022820	0.291500	0.038880
Co61	Co6	0.381060	0.757750	0.150660
O311	O31	0.370990	0.735790	0.255740
O321	O32	0.441600	0.812720	0.266750
O331	O33	0.534990	0.758670	0.597710
O341	O34	0.554580	0.838610	0.512770
O351	O35	0.307210	0.673020	0.597100
O361	O36	0.257020	0.660410	0.488410
C461	C46	0.406000	0.771440	0.294310
C471	C47	0.405790	0.762240	0.378180
C481	C48	0.355840	0.728040	0.413520
H161	H16	0.320300	0.713400	0.385600
C491	C49	0.358380	0.715580	0.489560
C501	C50	0.411700	0.737400	0.531010
H171	H17	0.413800	0.728900	0.582200
C511	C51	0.461440	0.771590	0.496510
C521	C52	0.457860	0.784320	0.419460
H181	H18	0.491000	0.807900	0.396100
C531	C53	0.302600	0.680780	0.527710
C541	C54	0.522820	0.791500	0.538880
Co71	Co7	0.118940	0.742250	0.650660
O371	O37	0.129010	0.764210	0.755740
O381	O38	0.058400	0.687280	0.766750
O391	O39	0.965010	0.741330	0.097710
O401	O40	0.945420	0.661390	0.012770
O411	O41	0.192790	0.826980	0.097100
O421	O42	0.242980	0.839590	0.988410
C551	C55	0.094000	0.728560	0.794310
C561	C56	0.094210	0.737760	0.878180
C571	C57	0.144160	0.771960	0.913520
H191	H19	0.179700	0.786600	0.885600
C581	C58	0.141620	0.784420	0.989560
C591	C59	0.088300	0.762600	0.031010
H201	H20	0.086200	0.771100	0.082200
C601	C60	0.038560	0.728410	0.996510
C611	C61	0.042140	0.715680	0.919460
H211	H21	0.009000	0.692100	0.896100
C621	C62	0.197400	0.819220	0.027710
C631	C63	0.977180	0.708500	0.038880
Co81	Co8	0.618940	0.242250	0.150660
O431	O43	0.629010	0.264210	0.255740
O441	O44	0.558400	0.187280	0.266750
O451	O45	0.465010	0.241330	0.597710
O461	O46	0.445420	0.161390	0.512770
O471	O47	0.692790	0.326980	0.597100
O481	O48	0.742980	0.339590	0.488410
C641	C64	0.594000	0.228560	0.294310
C651	C65	0.594210	0.237760	0.378180
C661	C66	0.644160	0.271960	0.413520
H221	H22	0.679700	0.286600	0.385600
C671	C67	0.641620	0.284420	0.489560
C681	C68	0.588300	0.262600	0.531010
H231	H23	0.586200	0.271100	0.582200
C691	C69	0.538560	0.228410	0.496510
C701	C70	0.542140	0.215680	0.419460
H241	H24	0.509000	0.192100	0.396100
C711	C71	0.697400	0.319220	0.527710
C721	C72	0.477180	0.208500	0.538880
Co91	Co9	0.257750	0.881060	0.150660
O491	O49	0.235790	0.870990	0.255740
O501	O50	0.312720	0.941600	0.266750
O511	O51	0.258670	0.034990	0.597710
O521	O52	0.338610	0.054580	0.512770
O531	O53	0.173020	0.807210	0.597100
O541	O54	0.160410	0.757020	0.488410
C731	C73	0.271440	0.906000	0.294310
C741	C74	0.262240	0.905790	0.378180
C751	C75	0.228040	0.855840	0.413520
H251	H25	0.213400	0.820300	0.385600
C761	C76	0.215580	0.858380	0.489560
C771	C77	0.237400	0.911700	0.531010
H261	H26	0.228900	0.913800	0.582200
C781	C78	0.271590	0.961440	0.496510
C791	C79	0.284320	0.957860	0.419460
H271	H27	0.307900	0.991000	0.396100
C801	C80	0.180780	0.802600	0.527710
C811	C81	0.291500	0.022820	0.538880
Co101	Co10	0.757750	0.381060	0.650660
O551	O55	0.735790	0.370990	0.755740
O561	O56	0.812720	0.441600	0.766750
O571	O57	0.758670	0.534990	0.097710
O581	O58	0.838610	0.554580	0.012770
O591	O59	0.673020	0.307210	0.097100
O601	O60	0.660410	0.257020	0.988410
C821	C82	0.771440	0.406000	0.794310
C831	C83	0.762240	0.405790	0.878180
C841	C84	0.728040	0.355840	0.913520
H281	H28	0.713400	0.320300	0.885600
C851	C85	0.715580	0.358380	0.989560
C861	C86	0.737400	0.411700	0.031010
H291	H29	0.728900	0.413800	0.082200
C871	C87	0.771590	0.461440	0.996510
C881	C88	0.784320	0.457860	0.919460
H301	H30	0.807900	0.491000	0.896100
C891	C89	0.680780	0.302600	0.027710
C901	C90	0.791500	0.522820	0.038880
Co111	Co11	0.742250	0.118940	0.150660
O611	O61	0.764210	0.129010	0.255740
O621	O62	0.687280	0.058400	0.266750
O631	O63	0.741330	0.965010	0.597710
O641	O64	0.661390	0.945420	0.512770
O651	O65	0.826980	0.192790	0.597100
O661	O66	0.839590	0.242980	0.488410
C911	C91	0.728560	0.094000	0.294310
C921	C92	0.737760	0.094210	0.378180
C931	C93	0.771960	0.144160	0.413520
H311	H31	0.786600	0.179700	0.385600
C941	C94	0.784420	0.141620	0.489560
C951	C95	0.762600	0.088300	0.531010
H321	H32	0.771100	0.086200	0.582200
C961	C96	0.728410	0.038560	0.496510
C971	C97	0.715680	0.042140	0.419460
H331	H33	0.692100	0.009000	0.396100
C981	C98	0.819220	0.197400	0.527710
C991	C99	0.708500	0.977180	0.538880
Co121	Co12	0.242250	0.618940	0.650660
O671	O67	0.264210	0.629010	0.755740
O681	O68	0.187280	0.558400	0.766750
O691	O69	0.241330	0.465010	0.097710
O701	O70	0.161390	0.445420	0.012770
O711	O71	0.326980	0.692790	0.097100
O721	O72	0.339590	0.742980	0.988410
C1001	C100	0.228560	0.594000	0.794310
C1011	C101	0.237760	0.594210	0.878180
C1021	C102	0.271960	0.644160	0.913520
H341	H34	0.286600	0.679700	0.885600
C1031	C103	0.284420	0.641620	0.989560
C1041	C104	0.262600	0.588300	0.031010
H351	H35	0.271100	0.586200	0.082200
C1051	C105	0.228410	0.538560	0.996510
C1061	C106	0.215680	0.542140	0.919460
H361	H36	0.192100	0.509000	0.896100
C1071	C107	0.319220	0.697400	0.027710
C1081	C108	0.208500	0.477180	0.038880
Co131	Co13	0.881060	0.742250	0.150660
O731	O73	0.870990	0.764210	0.255740
O741	O74	0.941600	0.687280	0.266750
O751	O75	0.034990	0.741330	0.597710
O761	O76	0.054580	0.661390	0.512770
O771	O77	0.807210	0.826980	0.597100
O781	O78	0.757020	0.839590	0.488410
C1091	C109	0.906000	0.728560	0.294310
C1101	C110	0.905790	0.737760	0.378180
C1111	C111	0.855840	0.771960	0.413520
H371	H37	0.820300	0.786600	0.385600
C1121	C112	0.858380	0.784420	0.489560
C1131	C113	0.911700	0.762600	0.531010
H381	H38	0.913800	0.771100	0.582200
C1141	C114	0.961440	0.728410	0.496510
C1151	C115	0.957860	0.715680	0.419460
H391	H39	0.991000	0.692100	0.396100
C1161	C116	0.802600	0.819220	0.527710
C1171	C117	0.022820	0.708500	0.538880
Co141	Co14	0.381060	0.242250	0.650660
O791	O79	0.370990	0.264210	0.755740
O801	O80	0.441600	0.187280	0.766750
O811	O81	0.534990	0.241330	0.097710
O821	O82	0.554580	0.161390	0.012770
O831	O83	0.307210	0.326980	0.097100
O841	O84	0.257020	0.339590	0.988410
C1181	C118	0.406000	0.228560	0.794310
C1191	C119	0.405790	0.237760	0.878180
C1201	C120	0.355840	0.271960	0.913520
H401	H40	0.320300	0.286600	0.885600
C1211	C121	0.358380	0.284420	0.989560
C1221	C122	0.411700	0.262600	0.031010
H411	H41	0.413800	0.271100	0.082200
C1231	C123	0.461440	0.228410	0.996510
C1241	C124	0.457860	0.215680	0.919460
H421	H42	0.491000	0.192100	0.896100
C1251	C125	0.302600	0.319220	0.027710
C1261	C126	0.522820	0.208500	0.038880
Co151	Co15	0.118940	0.257750	0.150660
O851	O85	0.129010	0.235790	0.255740
O861	O86	0.058400	0.312720	0.266750
O871	O87	0.965010	0.258670	0.597710
O881	O88	0.945420	0.338610	0.512770
O891	O89	0.192790	0.173020	0.597100
O901	O90	0.242980	0.160410	0.488410
C1271	C127	0.094000	0.271440	0.294310
C1281	C128	0.094210	0.262240	0.378180
C1291	C129	0.144160	0.228040	0.413520
H431	H43	0.179700	0.213400	0.385600
C1301	C130	0.141620	0.215580	0.489560
C1311	C131	0.088300	0.237400	0.531010
H441	H44	0.086200	0.228900	0.582200
C1321	C132	0.038560	0.271590	0.496510
C1331	C133	0.042140	0.284320	0.419460
H451	H45	0.009000	0.307900	0.396100
C1341	C134	0.197400	0.180780	0.527710
C1351	C135	0.977180	0.291500	0.538880
Co161	Co16	0.618940	0.757750	0.650660
O911	O91	0.629010	0.735790	0.755740
O921	O92	0.558400	0.812720	0.766750
O931	O93	0.465010	0.758670	0.097710
O941	O94	0.445420	0.838610	0.012770
O951	O95	0.692790	0.673020	0.097100
O961	O96	0.742980	0.660410	0.988410
C1361	C136	0.594000	0.771440	0.794310
C1371	C137	0.594210	0.762240	0.878180
C1381	C138	0.644160	0.728040	0.913520
H461	H46	0.679700	0.713400	0.885600
C1391	C139	0.641620	0.715580	0.989560
C1401	C140	0.588300	0.737400	0.031010
H471	H47	0.586200	0.728900	0.082200
C1411	C141	0.538560	0.771590	0.996510
C1421	C142	0.542140	0.784320	0.919460
H481	H48	0.509000	0.807900	0.896100
C1431	C143	0.697400	0.680780	0.027710
C1441	C144	0.477180	0.791500	0.038880
Zn11	Zn1	0.344100	0.155900	0.504500
O971	O97	0.340760	0.159240	0.623750
Zn21	Zn2	0.655900	0.844100	0.504500
O981	O98	0.659240	0.840760	0.623750
Zn31	Zn3	0.155900	0.344100	0.004500
O991	O99	0.159240	0.340760	0.123750
Zn41	Zn4	0.844100	0.344100	0.504500
O1001	O100	0.840760	0.340760	0.623750
Zn51	Zn5	0.155900	0.655900	0.504500
O1011	O101	0.159240	0.659240	0.623750
Zn61	Zn6	0.344100	0.844100	0.004500
O1021	O102	0.340760	0.840760	0.123750
Zn71	Zn7	0.655900	0.155900	0.004500
O1031	O103	0.659240	0.159240	0.123750
Zn81	Zn8	0.844100	0.655900	0.004500
O1041	O104	0.840760	0.659240	0.123750
