data_UNECUN_clean_PM
_symmetry_space_group_name_H-M	'P1'
_cell_length_a	20.601300
_cell_length_b	20.601300
_cell_length_c	17.818300
_cell_angle_alpha	90.000000
_cell_angle_beta	90.000000
_cell_angle_gamma	90.000000
_symmetry_Int_Tables_number 1

loop_
_symmetry_equiv_pos_as_xyz
'x,y,z'

loop_
_atom_site_label
_atom_site_type_symbol
_atom_site_fract_x
_atom_site_fract_y
_atom_site_fract_z
Zn11	Zn1	0.258390	0.118940	0.464890
O11	O1	0.241880	0.159400	0.300930
O21	O2	0.193250	0.172360	0.410820
O31	O3	0.126850	0.235700	0.070160
O41	O4	0.056100	0.313700	0.083610
O51	O5	0.965970	0.256800	0.414300
O61	O6	0.946680	0.337680	0.330990
C11	C1	0.196700	0.179500	0.342300
C21	C2	0.140900	0.215200	0.303700
C31	C3	0.143800	0.227100	0.229000
H11	H1	0.179200	0.212700	0.201200
C41	C4	0.093200	0.261500	0.193500
C51	C5	0.040410	0.284640	0.235490
H21	H2	0.007400	0.308500	0.213000
C61	C6	0.038980	0.270500	0.312800
C71	C7	0.087680	0.235900	0.347300
H31	H3	0.085500	0.226400	0.398200
C81	C8	0.091800	0.272000	0.109900
C91	C9	0.978400	0.291500	0.356300
Zn21	Zn2	0.758390	0.618940	0.964890
O71	O7	0.741880	0.659400	0.800930
O81	O8	0.693250	0.672360	0.910820
O91	O9	0.626850	0.735700	0.570160
O101	O10	0.556100	0.813700	0.583610
O111	O11	0.465970	0.756800	0.914300
O121	O12	0.446680	0.837680	0.830990
C101	C10	0.696700	0.679500	0.842300
C111	C11	0.640900	0.715200	0.803700
C121	C12	0.643800	0.727100	0.729000
H41	H4	0.679200	0.712700	0.701200
C131	C13	0.593200	0.761500	0.693500
C141	C14	0.540410	0.784640	0.735490
H51	H5	0.507400	0.808500	0.713000
C151	C15	0.538980	0.770500	0.812800
C161	C16	0.587680	0.735900	0.847300
H61	H6	0.585500	0.726400	0.898200
C171	C17	0.591800	0.772000	0.609900
C181	C18	0.478400	0.791500	0.856300
Zn31	Zn3	0.741610	0.881060	0.464890
O131	O13	0.758120	0.840600	0.300930
O141	O14	0.806750	0.827640	0.410820
O151	O15	0.873150	0.764300	0.070160
O161	O16	0.943900	0.686300	0.083610
O171	O17	0.034030	0.743200	0.414300
O181	O18	0.053320	0.662320	0.330990
C191	C19	0.803300	0.820500	0.342300
C201	C20	0.859100	0.784800	0.303700
C211	C21	0.856200	0.772900	0.229000
H71	H7	0.820800	0.787300	0.201200
C221	C22	0.906800	0.738500	0.193500
C231	C23	0.959590	0.715360	0.235490
H81	H8	0.992600	0.691500	0.213000
C241	C24	0.961020	0.729500	0.312800
C251	C25	0.912320	0.764100	0.347300
H91	H9	0.914500	0.773600	0.398200
C261	C26	0.908200	0.728000	0.109900
C271	C27	0.021600	0.708500	0.356300
Zn41	Zn4	0.241610	0.381060	0.964890
O191	O19	0.258120	0.340600	0.800930
O201	O20	0.306750	0.327640	0.910820
O211	O21	0.373150	0.264300	0.570160
O221	O22	0.443900	0.186300	0.583610
O231	O23	0.534030	0.243200	0.914300
O241	O24	0.553320	0.162320	0.830990
C281	C28	0.303300	0.320500	0.842300
C291	C29	0.359100	0.284800	0.803700
C301	C30	0.356200	0.272900	0.729000
H101	H10	0.320800	0.287300	0.701200
C311	C31	0.406800	0.238500	0.693500
C321	C32	0.459590	0.215360	0.735490
H111	H11	0.492600	0.191500	0.713000
C331	C33	0.461020	0.229500	0.812800
C341	C34	0.412320	0.264100	0.847300
H121	H12	0.414500	0.273600	0.898200
C351	C35	0.408200	0.228000	0.609900
C361	C36	0.521600	0.208500	0.856300
Zn51	Zn5	0.881060	0.258390	0.464890
O251	O25	0.840600	0.241880	0.300930
O261	O26	0.827640	0.193250	0.410820
O271	O27	0.764300	0.126850	0.070160
O281	O28	0.686300	0.056100	0.083610
O291	O29	0.743200	0.965970	0.414300
O301	O30	0.662320	0.946680	0.330990
C371	C37	0.820500	0.196700	0.342300
C381	C38	0.784800	0.140900	0.303700
C391	C39	0.772900	0.143800	0.229000
H131	H13	0.787300	0.179200	0.201200
C401	C40	0.738500	0.093200	0.193500
C411	C41	0.715360	0.040410	0.235490
H141	H14	0.691500	0.007400	0.213000
C421	C42	0.729500	0.038980	0.312800
C431	C43	0.764100	0.087680	0.347300
H151	H15	0.773600	0.085500	0.398200
C441	C44	0.728000	0.091800	0.109900
C451	C45	0.708500	0.978400	0.356300
Zn61	Zn6	0.381060	0.758390	0.964890
O311	O31	0.340600	0.741880	0.800930
O321	O32	0.327640	0.693250	0.910820
O331	O33	0.264300	0.626850	0.570160
O341	O34	0.186300	0.556100	0.583610
O351	O35	0.243200	0.465970	0.914300
O361	O36	0.162320	0.446680	0.830990
C461	C46	0.320500	0.696700	0.842300
C471	C47	0.284800	0.640900	0.803700
C481	C48	0.272900	0.643800	0.729000
H161	H16	0.287300	0.679200	0.701200
C491	C49	0.238500	0.593200	0.693500
C501	C50	0.215360	0.540410	0.735490
H171	H17	0.191500	0.507400	0.713000
C511	C51	0.229500	0.538980	0.812800
C521	C52	0.264100	0.587680	0.847300
H181	H18	0.273600	0.585500	0.898200
C531	C53	0.228000	0.591800	0.609900
C541	C54	0.208500	0.478400	0.856300
Zn71	Zn7	0.118940	0.741610	0.464890
O371	O37	0.159400	0.758120	0.300930
O381	O38	0.172360	0.806750	0.410820
O391	O39	0.235700	0.873150	0.070160
O401	O40	0.313700	0.943900	0.083610
O411	O41	0.256800	0.034030	0.414300
O421	O42	0.337680	0.053320	0.330990
C551	C55	0.179500	0.803300	0.342300
C561	C56	0.215200	0.859100	0.303700
C571	C57	0.227100	0.856200	0.229000
H191	H19	0.212700	0.820800	0.201200
C581	C58	0.261500	0.906800	0.193500
C591	C59	0.284640	0.959590	0.235490
H201	H20	0.308500	0.992600	0.213000
C601	C60	0.270500	0.961020	0.312800
C611	C61	0.235900	0.912320	0.347300
H211	H21	0.226400	0.914500	0.398200
C621	C62	0.272000	0.908200	0.109900
C631	C63	0.291500	0.021600	0.356300
Zn81	Zn8	0.618940	0.241610	0.964890
O431	O43	0.659400	0.258120	0.800930
O441	O44	0.672360	0.306750	0.910820
O451	O45	0.735700	0.373150	0.570160
O461	O46	0.813700	0.443900	0.583610
O471	O47	0.756800	0.534030	0.914300
O481	O48	0.837680	0.553320	0.830990
C641	C64	0.679500	0.303300	0.842300
C651	C65	0.715200	0.359100	0.803700
C661	C66	0.727100	0.356200	0.729000
H221	H22	0.712700	0.320800	0.701200
C671	C67	0.761500	0.406800	0.693500
C681	C68	0.784640	0.459590	0.735490
H231	H23	0.808500	0.492600	0.713000
C691	C69	0.770500	0.461020	0.812800
C701	C70	0.735900	0.412320	0.847300
H241	H24	0.726400	0.414500	0.898200
C711	C71	0.772000	0.408200	0.609900
C721	C72	0.791500	0.521600	0.856300
Zn91	Zn9	0.258390	0.881060	0.964890
O491	O49	0.241880	0.840600	0.800930
O501	O50	0.193250	0.827640	0.910820
O511	O51	0.126850	0.764300	0.570160
O521	O52	0.056100	0.686300	0.583610
O531	O53	0.965970	0.743200	0.914300
O541	O54	0.946680	0.662320	0.830990
C731	C73	0.196700	0.820500	0.842300
C741	C74	0.140900	0.784800	0.803700
C751	C75	0.143800	0.772900	0.729000
H251	H25	0.179200	0.787300	0.701200
C761	C76	0.093200	0.738500	0.693500
C771	C77	0.040410	0.715360	0.735490
H261	H26	0.007400	0.691500	0.713000
C781	C78	0.038980	0.729500	0.812800
C791	C79	0.087680	0.764100	0.847300
H271	H27	0.085500	0.773600	0.898200
C801	C80	0.091800	0.728000	0.609900
C811	C81	0.978400	0.708500	0.856300
Zn101	Zn10	0.758390	0.381060	0.464890
O551	O55	0.741880	0.340600	0.300930
O561	O56	0.693250	0.327640	0.410820
O571	O57	0.626850	0.264300	0.070160
O581	O58	0.556100	0.186300	0.083610
O591	O59	0.465970	0.243200	0.414300
O601	O60	0.446680	0.162320	0.330990
C821	C82	0.696700	0.320500	0.342300
C831	C83	0.640900	0.284800	0.303700
C841	C84	0.643800	0.272900	0.229000
H281	H28	0.679200	0.287300	0.201200
C851	C85	0.593200	0.238500	0.193500
C861	C86	0.540410	0.215360	0.235490
H291	H29	0.507400	0.191500	0.213000
C871	C87	0.538980	0.229500	0.312800
C881	C88	0.587680	0.264100	0.347300
H301	H30	0.585500	0.273600	0.398200
C891	C89	0.591800	0.228000	0.109900
C901	C90	0.478400	0.208500	0.356300
Zn111	Zn11	0.741610	0.118940	0.964890
O611	O61	0.758120	0.159400	0.800930
O621	O62	0.806750	0.172360	0.910820
O631	O63	0.873150	0.235700	0.570160
O641	O64	0.943900	0.313700	0.583610
O651	O65	0.034030	0.256800	0.914300
O661	O66	0.053320	0.337680	0.830990
C911	C91	0.803300	0.179500	0.842300
C921	C92	0.859100	0.215200	0.803700
C931	C93	0.856200	0.227100	0.729000
H311	H31	0.820800	0.212700	0.701200
C941	C94	0.906800	0.261500	0.693500
C951	C95	0.959590	0.284640	0.735490
H321	H32	0.992600	0.308500	0.713000
C961	C96	0.961020	0.270500	0.812800
C971	C97	0.912320	0.235900	0.847300
H331	H33	0.914500	0.226400	0.898200
C981	C98	0.908200	0.272000	0.609900
C991	C99	0.021600	0.291500	0.856300
Zn121	Zn12	0.241610	0.618940	0.464890
O671	O67	0.258120	0.659400	0.300930
O681	O68	0.306750	0.672360	0.410820
O691	O69	0.373150	0.735700	0.070160
O701	O70	0.443900	0.813700	0.083610
O711	O71	0.534030	0.756800	0.414300
O721	O72	0.553320	0.837680	0.330990
C1001	C100	0.303300	0.679500	0.342300
C1011	C101	0.359100	0.715200	0.303700
C1021	C102	0.356200	0.727100	0.229000
H341	H34	0.320800	0.712700	0.201200
C1031	C103	0.406800	0.761500	0.193500
C1041	C104	0.459590	0.784640	0.235490
H351	H35	0.492600	0.808500	0.213000
C1051	C105	0.461020	0.770500	0.312800
C1061	C106	0.412320	0.735900	0.347300
H361	H36	0.414500	0.726400	0.398200
C1071	C107	0.408200	0.772000	0.109900
C1081	C108	0.521600	0.791500	0.356300
Zn131	Zn13	0.881060	0.741610	0.964890
O731	O73	0.840600	0.758120	0.800930
O741	O74	0.827640	0.806750	0.910820
O751	O75	0.764300	0.873150	0.570160
O761	O76	0.686300	0.943900	0.583610
O771	O77	0.743200	0.034030	0.914300
O781	O78	0.662320	0.053320	0.830990
C1091	C109	0.820500	0.803300	0.842300
C1101	C110	0.784800	0.859100	0.803700
C1111	C111	0.772900	0.856200	0.729000
H371	H37	0.787300	0.820800	0.701200
C1121	C112	0.738500	0.906800	0.693500
C1131	C113	0.715360	0.959590	0.735490
H381	H38	0.691500	0.992600	0.713000
C1141	C114	0.729500	0.961020	0.812800
C1151	C115	0.764100	0.912320	0.847300
H391	H39	0.773600	0.914500	0.898200
C1161	C116	0.728000	0.908200	0.609900
C1171	C117	0.708500	0.021600	0.856300
Zn141	Zn14	0.381060	0.241610	0.464890
O791	O79	0.340600	0.258120	0.300930
O801	O80	0.327640	0.306750	0.410820
O811	O81	0.264300	0.373150	0.070160
O821	O82	0.186300	0.443900	0.083610
O831	O83	0.243200	0.534030	0.414300
O841	O84	0.162320	0.553320	0.330990
C1181	C118	0.320500	0.303300	0.342300
C1191	C119	0.284800	0.359100	0.303700
C1201	C120	0.272900	0.356200	0.229000
H401	H40	0.287300	0.320800	0.201200
C1211	C121	0.238500	0.406800	0.193500
C1221	C122	0.215360	0.459590	0.235490
H411	H41	0.191500	0.492600	0.213000
C1231	C123	0.229500	0.461020	0.312800
C1241	C124	0.264100	0.412320	0.347300
H421	H42	0.273600	0.414500	0.398200
C1251	C125	0.228000	0.408200	0.109900
C1261	C126	0.208500	0.521600	0.356300
Zn151	Zn15	0.118940	0.258390	0.964890
O851	O85	0.159400	0.241880	0.800930
O861	O86	0.172360	0.193250	0.910820
O871	O87	0.235700	0.126850	0.570160
O881	O88	0.313700	0.056100	0.583610
O891	O89	0.256800	0.965970	0.914300
O901	O90	0.337680	0.946680	0.830990
C1271	C127	0.179500	0.196700	0.842300
C1281	C128	0.215200	0.140900	0.803700
C1291	C129	0.227100	0.143800	0.729000
H431	H43	0.212700	0.179200	0.701200
C1301	C130	0.261500	0.093200	0.693500
C1311	C131	0.284640	0.040410	0.735490
H441	H44	0.308500	0.007400	0.713000
C1321	C132	0.270500	0.038980	0.812800
C1331	C133	0.235900	0.087680	0.847300
H451	H45	0.226400	0.085500	0.898200
C1341	C134	0.272000	0.091800	0.609900
C1351	C135	0.291500	0.978400	0.856300
Zn161	Zn16	0.618940	0.758390	0.464890
O911	O91	0.659400	0.741880	0.300930
O921	O92	0.672360	0.693250	0.410820
O931	O93	0.735700	0.626850	0.070160
O941	O94	0.813700	0.556100	0.083610
O951	O95	0.756800	0.465970	0.414300
O961	O96	0.837680	0.446680	0.330990
C1361	C136	0.679500	0.696700	0.342300
C1371	C137	0.715200	0.640900	0.303700
C1381	C138	0.727100	0.643800	0.229000
H461	H46	0.712700	0.679200	0.201200
C1391	C139	0.761500	0.593200	0.193500
C1401	C140	0.784640	0.540410	0.235490
H471	H47	0.808500	0.507400	0.213000
C1411	C141	0.770500	0.538980	0.312800
C1421	C142	0.735900	0.587680	0.347300
H481	H48	0.726400	0.585500	0.398200
C1431	C143	0.772000	0.591800	0.109900
C1441	C144	0.791500	0.478400	0.356300
Cd11	Cd1	0.345890	0.154110	0.315840
O971	O97	0.340110	0.159890	0.437300
Cd21	Cd2	0.654110	0.845890	0.315840
O981	O98	0.659890	0.840110	0.437300
Cd31	Cd3	0.154110	0.345890	0.815840
O991	O99	0.159890	0.340110	0.937300
Cd41	Cd4	0.845890	0.345890	0.315840
O1001	O100	0.840110	0.340110	0.437300
Cd51	Cd5	0.154110	0.654110	0.315840
O1011	O101	0.159890	0.659890	0.437300
Cd61	Cd6	0.345890	0.845890	0.815840
O1021	O102	0.340110	0.840110	0.937300
Cd71	Cd7	0.654110	0.154110	0.815840
O1031	O103	0.659890	0.159890	0.937300
Cd81	Cd8	0.845890	0.654110	0.815840
O1041	O104	0.840110	0.659890	0.937300
