data_UNERUB_clean_PM
_symmetry_space_group_name_H-M	'P1'
_cell_length_a	17.100600
_cell_length_b	17.100600
_cell_length_c	10.752500
_cell_angle_alpha	90.000000
_cell_angle_beta	90.000000
_cell_angle_gamma	90.000000
_symmetry_Int_Tables_number 1

loop_
_symmetry_equiv_pos_as_xyz
'x,y,z'

loop_
_atom_site_label
_atom_site_type_symbol
_atom_site_fract_x
_atom_site_fract_y
_atom_site_fract_z
W11	W1	0.308150	0.588020	0.053780
P11	P1	0.134480	0.667210	0.053050
O11	O1	0.399900	0.542700	0.084100
O21	O2	0.203600	0.632200	0.976800
O31	O3	0.319000	0.676300	0.139300
O41	O4	0.283700	0.501200	0.915600
O51	O5	0.107600	0.604900	0.149600
O61	O6	0.159600	0.742400	0.117700
O71	O7	0.066400	0.678600	0.966200
W21	W2	0.808150	0.088020	0.553780
P21	P2	0.634480	0.167210	0.553050
O81	O8	0.899900	0.042700	0.584100
O91	O9	0.703600	0.132200	0.476800
O101	O10	0.819000	0.176300	0.639300
O111	O11	0.783700	0.001200	0.415600
O121	O12	0.607600	0.104900	0.649600
O131	O13	0.659600	0.242400	0.617700
O141	O14	0.566400	0.178600	0.466200
W31	W3	0.191850	0.411980	0.553780
P31	P3	0.365520	0.332790	0.553050
O151	O15	0.100100	0.457300	0.584100
O161	O16	0.296400	0.367800	0.476800
O171	O17	0.181000	0.323700	0.639300
O181	O18	0.216300	0.498800	0.415600
O191	O19	0.392400	0.395100	0.649600
O201	O20	0.340400	0.257600	0.617700
O211	O21	0.433600	0.321400	0.466200
W41	W4	0.691850	0.911980	0.053780
P41	P4	0.865520	0.832790	0.053050
O221	O22	0.600100	0.957300	0.084100
O231	O23	0.796400	0.867800	0.976800
O241	O24	0.681000	0.823700	0.139300
O251	O25	0.716300	0.998800	0.915600
O261	O26	0.892400	0.895100	0.149600
O271	O27	0.840400	0.757600	0.117700
O281	O28	0.933600	0.821400	0.966200
W51	W5	0.161980	0.558150	0.303780
P51	P5	0.082790	0.384480	0.303050
O291	O29	0.207300	0.649900	0.334100
O301	O30	0.117800	0.453600	0.226800
O311	O31	0.073700	0.569000	0.389300
O321	O32	0.248800	0.533700	0.165600
O331	O33	0.145100	0.357600	0.399600
O341	O34	0.007600	0.409600	0.367700
O351	O35	0.071400	0.316400	0.216200
W61	W6	0.661980	0.058150	0.803780
P61	P6	0.582790	0.884480	0.803050
O361	O36	0.707300	0.149900	0.834100
O371	O37	0.617800	0.953600	0.726800
O381	O38	0.573700	0.069000	0.889300
O391	O39	0.748800	0.033700	0.665600
O401	O40	0.645100	0.857600	0.899600
O411	O41	0.507600	0.909600	0.867700
O421	O42	0.571400	0.816400	0.716200
W71	W7	0.338020	0.441850	0.803780
P71	P7	0.417210	0.615520	0.803050
O431	O43	0.292700	0.350100	0.834100
O441	O44	0.382200	0.546400	0.726800
O451	O45	0.426300	0.431000	0.889300
O461	O46	0.251200	0.466300	0.665600
O471	O47	0.354900	0.642400	0.899600
O481	O48	0.492400	0.590400	0.867700
O491	O49	0.428600	0.683600	0.716200
W81	W8	0.838020	0.941850	0.303780
P81	P8	0.917210	0.115520	0.303050
O501	O50	0.792700	0.850100	0.334100
O511	O51	0.882200	0.046400	0.226800
O521	O52	0.926300	0.931000	0.389300
O531	O53	0.751200	0.966300	0.165600
O541	O54	0.854900	0.142400	0.399600
O551	O55	0.992400	0.090400	0.367700
O561	O56	0.928600	0.183600	0.216200
W91	W9	0.691850	0.411980	0.946220
P91	P9	0.865520	0.332790	0.946950
O571	O57	0.600100	0.457300	0.915900
O581	O58	0.796400	0.367800	0.023200
O591	O59	0.681000	0.323700	0.860700
O601	O60	0.716300	0.498800	0.084400
O611	O61	0.892400	0.395100	0.850400
O621	O62	0.840400	0.257600	0.882300
O631	O63	0.933600	0.321400	0.033800
W101	W10	0.191850	0.911980	0.446220
P101	P10	0.365520	0.832790	0.446950
O641	O64	0.100100	0.957300	0.415900
O651	O65	0.296400	0.867800	0.523200
O661	O66	0.181000	0.823700	0.360700
O671	O67	0.216300	0.998800	0.584400
O681	O68	0.392400	0.895100	0.350400
O691	O69	0.340400	0.757600	0.382300
O701	O70	0.433600	0.821400	0.533800
W111	W11	0.808150	0.588020	0.446220
P111	P11	0.634480	0.667210	0.446950
O711	O71	0.899900	0.542700	0.415900
O721	O72	0.703600	0.632200	0.523200
O731	O73	0.819000	0.676300	0.360700
O741	O74	0.783700	0.501200	0.584400
O751	O75	0.607600	0.604900	0.350400
O761	O76	0.659600	0.742400	0.382300
O771	O77	0.566400	0.678600	0.533800
W121	W12	0.308150	0.088020	0.946220
P121	P12	0.134480	0.167210	0.946950
O781	O78	0.399900	0.042700	0.915900
O791	O79	0.203600	0.132200	0.023200
O801	O80	0.319000	0.176300	0.860700
O811	O81	0.283700	0.001200	0.084400
O821	O82	0.107600	0.104900	0.850400
O831	O83	0.159600	0.242400	0.882300
O841	O84	0.066400	0.178600	0.033800
W131	W13	0.838020	0.441850	0.696220
P131	P13	0.917210	0.615520	0.696950
O851	O85	0.792700	0.350100	0.665900
O861	O86	0.882200	0.546400	0.773200
O871	O87	0.926300	0.431000	0.610700
O881	O88	0.751200	0.466300	0.834400
O891	O89	0.854900	0.642400	0.600400
O901	O90	0.992400	0.590400	0.632300
O911	O91	0.928600	0.683600	0.783800
W141	W14	0.338020	0.941850	0.196220
P141	P14	0.417210	0.115520	0.196950
O921	O92	0.292700	0.850100	0.165900
O931	O93	0.382200	0.046400	0.273200
O941	O94	0.426300	0.931000	0.110700
O951	O95	0.251200	0.966300	0.334400
O961	O96	0.354900	0.142400	0.100400
O971	O97	0.492400	0.090400	0.132300
O981	O98	0.428600	0.183600	0.283800
W151	W15	0.661980	0.558150	0.196220
P151	P15	0.582790	0.384480	0.196950
O991	O99	0.707300	0.649900	0.165900
O1001	O100	0.617800	0.453600	0.273200
O1011	O101	0.573700	0.569000	0.110700
O1021	O102	0.748800	0.533700	0.334400
O1031	O103	0.645100	0.357600	0.100400
O1041	O104	0.507600	0.409600	0.132300
O1051	O105	0.571400	0.316400	0.283800
W161	W16	0.161980	0.058150	0.696220
P161	P16	0.082790	0.884480	0.696950
O1061	O106	0.207300	0.149900	0.665900
O1071	O107	0.117800	0.953600	0.773200
O1081	O108	0.073700	0.069000	0.610700
O1091	O109	0.248800	0.033700	0.834400
O1101	O110	0.145100	0.857600	0.600400
O1111	O111	0.007600	0.909600	0.632300
O1121	O112	0.071400	0.816400	0.783800
Co11	Co1	0.250000	0.750000	0.250000
Co21	Co2	0.250000	0.250000	0.750000
Co31	Co3	0.000000	0.500000	0.500000
Co41	Co4	0.500000	0.000000	0.000000
Co51	Co5	0.500000	0.500000	0.000000
Co61	Co6	0.000000	0.000000	0.500000
Co71	Co7	0.750000	0.250000	0.750000
Co81	Co8	0.750000	0.750000	0.250000
Co91	Co9	0.000000	0.750000	0.875000
Co101	Co10	0.500000	0.250000	0.375000
Co111	Co11	0.000000	0.250000	0.125000
Co121	Co12	0.500000	0.750000	0.625000
