data_UNIPAJ_clean_PM
_symmetry_space_group_name_H-M	'P1'
_cell_length_a	12.598400
_cell_length_b	14.177700
_cell_length_c	14.177700
_cell_angle_alpha	98.680300
_cell_angle_beta	98.255500
_cell_angle_gamma	98.255500
_symmetry_Int_Tables_number 1

loop_
_symmetry_equiv_pos_as_xyz
'x,y,z'

loop_
_atom_site_label
_atom_site_type_symbol
_atom_site_fract_x
_atom_site_fract_y
_atom_site_fract_z
Cd11	Cd1	0.423000	0.305050	0.401340
Cd21	Cd2	0.077000	0.598660	0.694950
Cd31	Cd3	0.577000	0.694950	0.598660
Cd41	Cd4	0.923000	0.401340	0.305050
H11	H1	0.624000	0.155800	0.627600
H21	H2	0.693900	0.058300	0.749900
H31	H3	0.839900	0.014200	0.837600
H41	H4	0.014700	0.073400	0.820800
H51	H5	0.045900	0.173800	0.713400
H61	H6	0.974300	0.259400	0.583400
H71	H7	0.346100	0.108400	0.468600
H81	H8	0.201100	0.009800	0.505200
H91	H9	0.007200	0.179300	0.396900
H101	H10	0.157400	0.276900	0.368500
H111	H11	0.588500	0.179100	0.300300
H121	H12	0.602500	0.072000	0.166000
H131	H13	0.305500	0.103800	0.048200
H141	H14	0.300700	0.211100	0.184900
H151	H15	0.876000	0.372400	0.844200
H161	H16	0.806100	0.250100	0.941700
H171	H17	0.660100	0.162400	0.985800
H181	H18	0.485300	0.179200	0.926600
H191	H19	0.454100	0.286600	0.826200
H201	H20	0.525700	0.416600	0.740600
H211	H21	0.153900	0.531400	0.891600
H221	H22	0.298900	0.494800	0.990200
H231	H23	0.492800	0.603100	0.820700
H241	H24	0.342600	0.631500	0.723100
H251	H25	0.911500	0.699700	0.820900
H261	H26	0.897500	0.834000	0.928000
H271	H27	0.194500	0.951800	0.896200
H281	H28	0.199300	0.815100	0.788900
H291	H29	0.376000	0.844200	0.372400
H301	H30	0.306100	0.941700	0.250100
H311	H31	0.160100	0.985800	0.162400
H321	H32	0.985300	0.926600	0.179200
H331	H33	0.954100	0.826200	0.286600
H341	H34	0.025700	0.740600	0.416600
H351	H35	0.653900	0.891600	0.531400
H361	H36	0.798900	0.990200	0.494800
H371	H37	0.992800	0.820700	0.603100
H381	H38	0.842600	0.723100	0.631500
H391	H39	0.411500	0.820900	0.699700
H401	H40	0.397500	0.928000	0.834000
H411	H41	0.694500	0.896200	0.951800
H421	H42	0.699300	0.788900	0.815100
H431	H43	0.124000	0.627600	0.155800
H441	H44	0.193900	0.749900	0.058300
H451	H45	0.339900	0.837600	0.014200
H461	H46	0.514700	0.820800	0.073400
H471	H47	0.545900	0.713400	0.173800
H481	H48	0.474300	0.583400	0.259400
H491	H49	0.846100	0.468600	0.108400
H501	H50	0.701100	0.505200	0.009800
H511	H51	0.507200	0.396900	0.179300
H521	H52	0.657400	0.368500	0.276900
H531	H53	0.088500	0.300300	0.179100
H541	H54	0.102500	0.166000	0.072000
H551	H55	0.805500	0.048200	0.103800
H561	H56	0.800700	0.184900	0.211100
C11	C1	0.610600	0.254620	0.491780
C21	C2	0.710000	0.226970	0.546650
C31	C3	0.694500	0.173720	0.616680
C41	C4	0.781400	0.144230	0.674370
C51	C5	0.764200	0.081600	0.741600
C61	C6	0.851200	0.056000	0.794000
C71	C7	0.956300	0.091100	0.783500
C81	C8	0.974800	0.150900	0.719700
C91	C9	0.887900	0.179170	0.662830
C101	C10	0.903600	0.236120	0.590680
C111	C11	0.819500	0.258400	0.531840
C121	C12	0.845100	0.302400	0.445800
C131	C13	0.276900	0.124100	0.455700
C141	C14	0.190300	0.063400	0.476800
C151	C15	0.088400	0.085200	0.454400
C161	C16	0.076200	0.164200	0.413400
C171	C17	0.166800	0.222600	0.396200
C181	C18	0.530700	0.163700	0.248900
C191	C19	0.539800	0.099100	0.168300
C201	C20	0.455600	0.075690	0.092310
C211	C21	0.364400	0.118200	0.098800
C221	C22	0.362100	0.182200	0.181400
C231	C23	0.889400	0.508220	0.745380
C241	C24	0.790000	0.453350	0.773030
C251	C25	0.805500	0.383320	0.826280
C261	C26	0.718600	0.325630	0.855770
C271	C27	0.735800	0.258400	0.918400
C281	C28	0.648800	0.206000	0.944000
C291	C29	0.543700	0.216500	0.908900
C301	C30	0.525200	0.280300	0.849100
C311	C31	0.612100	0.337170	0.820830
C321	C32	0.596400	0.409320	0.763880
C331	C33	0.680500	0.468160	0.741600
C341	C34	0.654900	0.554200	0.697600
C351	C35	0.223100	0.544300	0.875900
C361	C36	0.309700	0.523200	0.936600
C371	C37	0.411600	0.545600	0.914800
C381	C38	0.423800	0.586600	0.835800
C391	C39	0.333200	0.603800	0.777400
C401	C40	0.969300	0.751100	0.836300
C411	C41	0.960200	0.831700	0.900900
C421	C42	0.044400	0.907690	0.924310
C431	C43	0.135600	0.901200	0.881800
C441	C44	0.137900	0.818600	0.817800
C451	C45	0.389400	0.745380	0.508220
C461	C46	0.290000	0.773030	0.453350
C471	C47	0.305500	0.826280	0.383320
C481	C48	0.218600	0.855770	0.325630
C491	C49	0.235800	0.918400	0.258400
C501	C50	0.148800	0.944000	0.206000
C511	C51	0.043700	0.908900	0.216500
C521	C52	0.025200	0.849100	0.280300
C531	C53	0.112100	0.820830	0.337170
C541	C54	0.096400	0.763880	0.409320
C551	C55	0.180500	0.741600	0.468160
C561	C56	0.154900	0.697600	0.554200
C571	C57	0.723100	0.875900	0.544300
C581	C58	0.809700	0.936600	0.523200
C591	C59	0.911600	0.914800	0.545600
C601	C60	0.923800	0.835800	0.586600
C611	C61	0.833200	0.777400	0.603800
C621	C62	0.469300	0.836300	0.751100
C631	C63	0.460200	0.900900	0.831700
C641	C64	0.544400	0.924310	0.907690
C651	C65	0.635600	0.881800	0.901200
C661	C66	0.637900	0.817800	0.818600
C671	C67	0.110600	0.491780	0.254620
C681	C68	0.210000	0.546650	0.226970
C691	C69	0.194500	0.616680	0.173720
C701	C70	0.281400	0.674370	0.144230
C711	C71	0.264200	0.741600	0.081600
C721	C72	0.351200	0.794000	0.056000
C731	C73	0.456300	0.783500	0.091100
C741	C74	0.474800	0.719700	0.150900
C751	C75	0.387900	0.662830	0.179170
C761	C76	0.403600	0.590680	0.236120
C771	C77	0.319500	0.531840	0.258400
C781	C78	0.345100	0.445800	0.302400
C791	C79	0.776900	0.455700	0.124100
C801	C80	0.690300	0.476800	0.063400
C811	C81	0.588400	0.454400	0.085200
C821	C82	0.576200	0.413400	0.164200
C831	C83	0.666800	0.396200	0.222600
C841	C84	0.030700	0.248900	0.163700
C851	C85	0.039800	0.168300	0.099100
C861	C86	0.955600	0.092310	0.075690
C871	C87	0.864400	0.098800	0.118200
C881	C88	0.862100	0.181400	0.182200
N11	N1	0.267000	0.203370	0.417870
N21	N2	0.442700	0.204950	0.256190
N31	N3	0.454600	0.010120	0.004640
N41	N4	0.990700	0.027350	0.471650
N51	N5	0.233000	0.582130	0.796630
N61	N6	0.057300	0.743810	0.795050
N71	N7	0.045400	0.995360	0.989880
N81	N8	0.509300	0.528350	0.972650
N91	N9	0.733000	0.796630	0.582130
N101	N10	0.557300	0.795050	0.743810
N111	N11	0.545400	0.989880	0.995360
N121	N12	0.009300	0.972650	0.528350
N131	N13	0.767000	0.417870	0.203370
N141	N14	0.942700	0.256190	0.204950
N151	N15	0.954600	0.004640	0.010120
N161	N16	0.490700	0.471650	0.027350
O11	O1	0.524540	0.193340	0.475560
O21	O2	0.611680	0.335160	0.466480
O31	O3	0.782630	0.279160	0.366700
O41	O4	0.935280	0.359550	0.455830
O51	O5	0.975460	0.524440	0.806660
O61	O6	0.888320	0.533520	0.664840
O71	O7	0.717370	0.633300	0.720840
O81	O8	0.564720	0.544170	0.640450
O91	O9	0.475460	0.806660	0.524440
O101	O10	0.388320	0.664840	0.533520
O111	O11	0.217370	0.720840	0.633300
O121	O12	0.064720	0.640450	0.544170
O131	O13	0.024540	0.475560	0.193340
O141	O14	0.111680	0.466480	0.335160
O151	O15	0.282630	0.366700	0.279160
O161	O16	0.435280	0.455830	0.359550
