data_UNOTOH_clean_PM
_symmetry_space_group_name_H-M	'P1'
_cell_length_a	9.917000
_cell_length_b	8.740900
_cell_length_c	22.499000
_cell_angle_alpha	90.000000
_cell_angle_beta	107.430000
_cell_angle_gamma	90.000000
_symmetry_Int_Tables_number 1

loop_
_symmetry_equiv_pos_as_xyz
'x,y,z'

loop_
_atom_site_label
_atom_site_type_symbol
_atom_site_fract_x
_atom_site_fract_y
_atom_site_fract_z
C11	C1	0.830900	0.515400	0.277310
H11	H1	0.741600	0.553700	0.256900
C21	C2	0.896000	0.562900	0.336890
H21	H2	0.851300	0.631800	0.356300
C31	C3	0.029300	0.507300	0.368120
C41	C4	0.090400	0.404700	0.337350
H31	H3	0.179500	0.364200	0.356800
C51	C5	0.017700	0.363500	0.277720
H41	H4	0.060000	0.294500	0.257300
C61	C6	0.569100	0.227300	0.557160
H51	H5	0.598100	0.147400	0.536600
C71	C7	0.453100	0.310400	0.525320
H61	H6	0.405300	0.287200	0.484000
C81	C8	0.407700	0.429300	0.555110
C91	C9	0.482700	0.459200	0.616410
H71	H7	0.455700	0.538100	0.638200
C101	C10	0.598300	0.369600	0.644550
H81	H8	0.648200	0.390400	0.685800
C111	C11	0.049600	0.968200	0.634200
H91	H9	0.099400	0.011100	0.672200
C121	C12	0.119100	0.866400	0.607140
H101	H10	0.212400	0.839300	0.627100
C131	C13	0.047400	0.805000	0.549670
C141	C14	0.909400	0.850700	0.522110
H111	H11	0.859200	0.814300	0.482900
C151	C15	0.847400	0.949800	0.552970
H121	H12	0.753800	0.977500	0.534200
C161	C16	0.102100	0.552300	0.433210
C171	C17	0.280600	0.516500	0.521410
C181	C18	0.112200	0.689800	0.518930
Cu11	Cu1	0.801440	0.380690	0.156910
N11	N1	0.889200	0.416900	0.247030
N21	N2	0.643200	0.255400	0.616530
N31	N3	0.914800	0.009100	0.609040
N41	N4	0.042200	0.657700	0.459640
N51	N5	0.222100	0.479200	0.461750
N61	N6	0.230600	0.621500	0.552280
C191	C19	0.830900	0.984600	0.777310
H131	H13	0.741600	0.946300	0.756900
C201	C20	0.896000	0.937100	0.836890
H141	H14	0.851300	0.868200	0.856300
C211	C21	0.029300	0.992700	0.868120
C221	C22	0.090400	0.095300	0.837350
H151	H15	0.179500	0.135800	0.856800
C231	C23	0.017700	0.136500	0.777720
H161	H16	0.060000	0.205500	0.757300
C241	C24	0.569100	0.272700	0.057160
H171	H17	0.598100	0.352600	0.036600
C251	C25	0.453100	0.189600	0.025320
H181	H18	0.405300	0.212800	0.984000
C261	C26	0.407700	0.070700	0.055110
C271	C27	0.482700	0.040800	0.116410
H191	H19	0.455700	0.961900	0.138200
C281	C28	0.598300	0.130400	0.144550
H201	H20	0.648200	0.109600	0.185800
C291	C29	0.049600	0.531800	0.134200
H211	H21	0.099400	0.488900	0.172200
C301	C30	0.119100	0.633600	0.107140
H221	H22	0.212400	0.660700	0.127100
C311	C31	0.047400	0.695000	0.049670
C321	C32	0.909400	0.649300	0.022110
H231	H23	0.859200	0.685700	0.982900
C331	C33	0.847400	0.550200	0.052970
H241	H24	0.753800	0.522500	0.034200
C341	C34	0.102100	0.947700	0.933210
C351	C35	0.280600	0.983500	0.021410
C361	C36	0.112200	0.810200	0.018930
Cu21	Cu2	0.801440	0.119310	0.656910
N71	N7	0.889200	0.083100	0.747030
N81	N8	0.643200	0.244600	0.116530
N91	N9	0.914800	0.490900	0.109040
N101	N10	0.042200	0.842300	0.959640
N111	N11	0.222100	0.020800	0.961750
N121	N12	0.230600	0.878500	0.052280
C371	C37	0.169100	0.015400	0.222690
H251	H25	0.258400	0.053700	0.243100
C381	C38	0.104000	0.062900	0.163110
H261	H26	0.148700	0.131800	0.143700
C391	C39	0.970700	0.007300	0.131880
C401	C40	0.909600	0.904700	0.162650
H271	H27	0.820500	0.864200	0.143200
C411	C41	0.982300	0.863500	0.222280
H281	H28	0.940000	0.794500	0.242700
C421	C42	0.430900	0.727300	0.942840
H291	H29	0.401900	0.647400	0.963400
C431	C43	0.546900	0.810400	0.974680
H301	H30	0.594700	0.787200	0.016000
C441	C44	0.592300	0.929300	0.944890
C451	C45	0.517300	0.959200	0.883590
H311	H31	0.544300	0.038100	0.861800
C461	C46	0.401700	0.869600	0.855450
H321	H32	0.351800	0.890400	0.814200
C471	C47	0.950400	0.468200	0.865800
H331	H33	0.900600	0.511100	0.827800
C481	C48	0.880900	0.366400	0.892860
H341	H34	0.787600	0.339300	0.872900
C491	C49	0.952600	0.305000	0.950330
C501	C50	0.090600	0.350700	0.977890
H351	H35	0.140800	0.314300	0.017100
C511	C51	0.152600	0.449800	0.947030
H361	H36	0.246200	0.477500	0.965800
C521	C52	0.897900	0.052300	0.066790
C531	C53	0.719400	0.016500	0.978590
C541	C54	0.887800	0.189800	0.981070
Cu31	Cu3	0.198560	0.880690	0.343090
N131	N13	0.110800	0.916900	0.252970
N141	N14	0.356800	0.755400	0.883470
N151	N15	0.085200	0.509100	0.890960
N161	N16	0.957800	0.157700	0.040360
N171	N17	0.777900	0.979200	0.038250
N181	N18	0.769400	0.121500	0.947720
C551	C55	0.169100	0.484600	0.722690
H371	H37	0.258400	0.446300	0.743100
C561	C56	0.104000	0.437100	0.663110
H381	H38	0.148700	0.368200	0.643700
C571	C57	0.970700	0.492700	0.631880
C581	C58	0.909600	0.595300	0.662650
H391	H39	0.820500	0.635800	0.643200
C591	C59	0.982300	0.636500	0.722280
H401	H40	0.940000	0.705500	0.742700
C601	C60	0.430900	0.772700	0.442840
H411	H41	0.401900	0.852600	0.463400
C611	C61	0.546900	0.689600	0.474680
H421	H42	0.594700	0.712800	0.516000
C621	C62	0.592300	0.570700	0.444890
C631	C63	0.517300	0.540800	0.383590
H431	H43	0.544300	0.461900	0.361800
C641	C64	0.401700	0.630400	0.355450
H441	H44	0.351800	0.609600	0.314200
C651	C65	0.950400	0.031800	0.365800
H451	H45	0.900600	0.988900	0.327800
C661	C66	0.880900	0.133600	0.392860
H461	H46	0.787600	0.160700	0.372900
C671	C67	0.952600	0.195000	0.450330
C681	C68	0.090600	0.149300	0.477890
H471	H47	0.140800	0.185700	0.517100
C691	C69	0.152600	0.050200	0.447030
H481	H48	0.246200	0.022500	0.465800
C701	C70	0.897900	0.447700	0.566790
C711	C71	0.719400	0.483500	0.478590
C721	C72	0.887800	0.310200	0.481070
Cu41	Cu4	0.198560	0.619310	0.843090
N191	N19	0.110800	0.583100	0.752970
N201	N20	0.356800	0.744600	0.383470
N211	N21	0.085200	0.990900	0.390960
N221	N22	0.957800	0.342300	0.540360
N231	N23	0.777900	0.520800	0.538250
N241	N24	0.769400	0.378500	0.447720
