data_UPOSOI_clean_PM
_symmetry_space_group_name_H-M	'P1'
_cell_length_a	26.067000
_cell_length_b	21.168800
_cell_length_c	7.635400
_cell_angle_alpha	90.000000
_cell_angle_beta	90.000000
_cell_angle_gamma	90.000000
_symmetry_Int_Tables_number 1

loop_
_symmetry_equiv_pos_as_xyz
'x,y,z'

loop_
_atom_site_label
_atom_site_type_symbol
_atom_site_fract_x
_atom_site_fract_y
_atom_site_fract_z
Cd11	Cd1	0.498260	0.527150	0.460040
C11	C1	0.603210	0.474070	0.309400
C21	C2	0.657890	0.484030	0.327900
H11	H1	0.683800	0.468400	0.251900
C31	C3	0.665430	0.519590	0.472700
H21	H2	0.697500	0.533700	0.516900
C41	C4	0.616000	0.532150	0.547200
C51	C5	0.606210	0.566700	0.703200
C61	C6	0.558130	0.575400	0.786000
C71	C7	0.548600	0.617250	0.932800
H31	H3	0.573500	0.641600	0.993700
C81	C8	0.497800	0.615160	0.966800
H41	H4	0.480400	0.637700	0.056400
C91	C9	0.474900	0.572630	0.842700
C101	C10	0.578420	0.439240	0.176600
N11	N1	0.579150	0.504220	0.446400
N21	N2	0.512650	0.548480	0.737400
C111	C11	0.651160	0.596280	0.791200
C121	C12	0.681280	0.641400	0.709400
H51	H5	0.673300	0.652400	0.591900
N31	N3	0.721050	0.670390	0.786100
C131	C13	0.732000	0.654500	0.953300
H61	H6	0.760200	0.674500	0.009500
C141	C14	0.704150	0.610500	0.046100
H71	H7	0.712700	0.600600	0.163900
C151	C15	0.663250	0.580800	0.963800
H81	H8	0.643600	0.550000	0.024800
C161	C16	0.612370	0.406200	0.048200
C171	C17	0.647110	0.361780	0.110100
H91	H9	0.648700	0.354700	0.232900
N41	N4	0.678570	0.328360	0.006900
C181	C18	0.675520	0.337840	0.833500
H101	H10	0.697700	0.314600	0.758500
C191	C19	0.641450	0.380000	0.760000
H111	H11	0.640000	0.385200	0.636500
C201	C20	0.609420	0.414710	0.867400
H121	H12	0.585700	0.444000	0.818800
Cd21	Cd2	0.001740	0.472850	0.960040
C211	C21	0.896790	0.525930	0.809400
C221	C22	0.842110	0.515970	0.827900
H131	H13	0.816200	0.531600	0.751900
C231	C23	0.834570	0.480410	0.972700
H141	H14	0.802500	0.466300	0.016900
C241	C24	0.884000	0.467850	0.047200
C251	C25	0.893790	0.433300	0.203200
C261	C26	0.941870	0.424600	0.286000
C271	C27	0.951400	0.382750	0.432800
H151	H15	0.926500	0.358400	0.493700
C281	C28	0.002200	0.384840	0.466800
H161	H16	0.019600	0.362300	0.556400
C291	C29	0.025100	0.427370	0.342700
C301	C30	0.921580	0.560760	0.676600
N51	N5	0.920850	0.495780	0.946400
N61	N6	0.987350	0.451520	0.237400
C311	C31	0.848840	0.403720	0.291200
C321	C32	0.818720	0.358600	0.209400
H171	H17	0.826700	0.347600	0.091900
N71	N7	0.778950	0.329610	0.286100
C331	C33	0.768000	0.345500	0.453300
H181	H18	0.739800	0.325500	0.509500
C341	C34	0.795850	0.389500	0.546100
H191	H19	0.787300	0.399400	0.663900
C351	C35	0.836750	0.419200	0.463800
H201	H20	0.856400	0.450000	0.524800
C361	C36	0.887630	0.593800	0.548200
C371	C37	0.852890	0.638220	0.610100
H211	H21	0.851300	0.645300	0.732900
N81	N8	0.821430	0.671640	0.506900
C381	C38	0.824480	0.662160	0.333500
H221	H22	0.802300	0.685400	0.258500
C391	C39	0.858550	0.620000	0.260000
H231	H23	0.860000	0.614800	0.136500
C401	C40	0.890580	0.585290	0.367400
H241	H24	0.914300	0.556000	0.318800
Cd31	Cd3	0.501740	0.027150	0.539960
C411	C41	0.396790	0.974070	0.690600
C421	C42	0.342110	0.984030	0.672100
H251	H25	0.316200	0.968400	0.748100
C431	C43	0.334570	0.019590	0.527300
H261	H26	0.302500	0.033700	0.483100
C441	C44	0.384000	0.032150	0.452800
C451	C45	0.393790	0.066700	0.296800
C461	C46	0.441870	0.075400	0.214000
C471	C47	0.451400	0.117250	0.067200
H271	H27	0.426500	0.141600	0.006300
C481	C48	0.502200	0.115160	0.033200
H281	H28	0.519600	0.137700	0.943600
C491	C49	0.525100	0.072630	0.157300
C501	C50	0.421580	0.939240	0.823400
N91	N9	0.420850	0.004220	0.553600
N101	N10	0.487350	0.048480	0.262600
C511	C51	0.348840	0.096280	0.208800
C521	C52	0.318720	0.141400	0.290600
H291	H29	0.326700	0.152400	0.408100
N111	N11	0.278950	0.170390	0.213900
C531	C53	0.268000	0.154500	0.046700
H301	H30	0.239800	0.174500	0.990500
C541	C54	0.295850	0.110500	0.953900
H311	H31	0.287300	0.100600	0.836100
C551	C55	0.336750	0.080800	0.036200
H321	H32	0.356400	0.050000	0.975200
C561	C56	0.387630	0.906200	0.951800
C571	C57	0.352890	0.861780	0.889900
H331	H33	0.351300	0.854700	0.767100
N121	N12	0.321430	0.828360	0.993100
C581	C58	0.324480	0.837840	0.166500
H341	H34	0.302300	0.814600	0.241500
C591	C59	0.358550	0.880000	0.240000
H351	H35	0.360000	0.885200	0.363500
C601	C60	0.390580	0.914710	0.132600
H361	H36	0.414300	0.944000	0.181200
Cd41	Cd4	0.998260	0.972850	0.039960
C611	C61	0.103210	0.025930	0.190600
C621	C62	0.157890	0.015970	0.172100
H371	H37	0.183800	0.031600	0.248100
C631	C63	0.165430	0.980410	0.027300
H381	H38	0.197500	0.966300	0.983100
C641	C64	0.116000	0.967850	0.952800
C651	C65	0.106210	0.933300	0.796800
C661	C66	0.058130	0.924600	0.714000
C671	C67	0.048600	0.882750	0.567200
H391	H39	0.073500	0.858400	0.506300
C681	C68	0.997800	0.884840	0.533200
H401	H40	0.980400	0.862300	0.443600
C691	C69	0.974900	0.927370	0.657300
C701	C70	0.078420	0.060760	0.323400
N131	N13	0.079150	0.995780	0.053600
N141	N14	0.012650	0.951520	0.762600
C711	C71	0.151160	0.903720	0.708800
C721	C72	0.181280	0.858600	0.790600
H411	H41	0.173300	0.847600	0.908100
N151	N15	0.221050	0.829610	0.713900
C731	C73	0.232000	0.845500	0.546700
H421	H42	0.260200	0.825500	0.490500
C741	C74	0.204150	0.889500	0.453900
H431	H43	0.212700	0.899400	0.336100
C751	C75	0.163250	0.919200	0.536200
H441	H44	0.143600	0.950000	0.475200
C761	C76	0.112370	0.093800	0.451800
C771	C77	0.147110	0.138220	0.389900
H451	H45	0.148700	0.145300	0.267100
N161	N16	0.178570	0.171640	0.493100
C781	C78	0.175520	0.162160	0.666500
H461	H46	0.197700	0.185400	0.741500
C791	C79	0.141450	0.120000	0.740000
H471	H47	0.140000	0.114800	0.863500
C801	C80	0.109420	0.085290	0.632600
H481	H48	0.085700	0.056000	0.681200
Cd51	Cd5	0.501740	0.472850	0.539960
C811	C81	0.396790	0.525930	0.690600
C821	C82	0.342110	0.515970	0.672100
H491	H49	0.316200	0.531600	0.748100
C831	C83	0.334570	0.480410	0.527300
H501	H50	0.302500	0.466300	0.483100
C841	C84	0.384000	0.467850	0.452800
C851	C85	0.393790	0.433300	0.296800
C861	C86	0.441870	0.424600	0.214000
C871	C87	0.451400	0.382750	0.067200
H511	H51	0.426500	0.358400	0.006300
C881	C88	0.502200	0.384840	0.033200
H521	H52	0.519600	0.362300	0.943600
C891	C89	0.525100	0.427370	0.157300
C901	C90	0.421580	0.560760	0.823400
N171	N17	0.420850	0.495780	0.553600
N181	N18	0.487350	0.451520	0.262600
C911	C91	0.348840	0.403720	0.208800
C921	C92	0.318720	0.358600	0.290600
H531	H53	0.326700	0.347600	0.408100
N191	N19	0.278950	0.329610	0.213900
C931	C93	0.268000	0.345500	0.046700
H541	H54	0.239800	0.325500	0.990500
C941	C94	0.295850	0.389500	0.953900
H551	H55	0.287300	0.399400	0.836100
C951	C95	0.336750	0.419200	0.036200
H561	H56	0.356400	0.450000	0.975200
C961	C96	0.387630	0.593800	0.951800
C971	C97	0.352890	0.638220	0.889900
H571	H57	0.351300	0.645300	0.767100
N201	N20	0.321430	0.671640	0.993100
C981	C98	0.324480	0.662160	0.166500
H581	H58	0.302300	0.685400	0.241500
C991	C99	0.358550	0.620000	0.240000
H591	H59	0.360000	0.614800	0.363500
C1001	C100	0.390580	0.585290	0.132600
H601	H60	0.414300	0.556000	0.181200
Cd61	Cd6	0.998260	0.527150	0.039960
C1011	C101	0.103210	0.474070	0.190600
C1021	C102	0.157890	0.484030	0.172100
H611	H61	0.183800	0.468400	0.248100
C1031	C103	0.165430	0.519590	0.027300
H621	H62	0.197500	0.533700	0.983100
C1041	C104	0.116000	0.532150	0.952800
C1051	C105	0.106210	0.566700	0.796800
C1061	C106	0.058130	0.575400	0.714000
C1071	C107	0.048600	0.617250	0.567200
H631	H63	0.073500	0.641600	0.506300
C1081	C108	0.997800	0.615160	0.533200
H641	H64	0.980400	0.637700	0.443600
C1091	C109	0.974900	0.572630	0.657300
C1101	C110	0.078420	0.439240	0.323400
N211	N21	0.079150	0.504220	0.053600
N221	N22	0.012650	0.548480	0.762600
C1111	C111	0.151160	0.596280	0.708800
C1121	C112	0.181280	0.641400	0.790600
H651	H65	0.173300	0.652400	0.908100
N231	N23	0.221050	0.670390	0.713900
C1131	C113	0.232000	0.654500	0.546700
H661	H66	0.260200	0.674500	0.490500
C1141	C114	0.204150	0.610500	0.453900
H671	H67	0.212700	0.600600	0.336100
C1151	C115	0.163250	0.580800	0.536200
H681	H68	0.143600	0.550000	0.475200
C1161	C116	0.112370	0.406200	0.451800
C1171	C117	0.147110	0.361780	0.389900
H691	H69	0.148700	0.354700	0.267100
N241	N24	0.178570	0.328360	0.493100
C1181	C118	0.175520	0.337840	0.666500
H701	H70	0.197700	0.314600	0.741500
C1191	C119	0.141450	0.380000	0.740000
H711	H71	0.140000	0.385200	0.863500
C1201	C120	0.109420	0.414710	0.632600
H721	H72	0.085700	0.444000	0.681200
Cd71	Cd7	0.498260	0.972850	0.460040
C1211	C121	0.603210	0.025930	0.309400
C1221	C122	0.657890	0.015970	0.327900
H731	H73	0.683800	0.031600	0.251900
C1231	C123	0.665430	0.980410	0.472700
H741	H74	0.697500	0.966300	0.516900
C1241	C124	0.616000	0.967850	0.547200
C1251	C125	0.606210	0.933300	0.703200
C1261	C126	0.558130	0.924600	0.786000
C1271	C127	0.548600	0.882750	0.932800
H751	H75	0.573500	0.858400	0.993700
C1281	C128	0.497800	0.884840	0.966800
H761	H76	0.480400	0.862300	0.056400
C1291	C129	0.474900	0.927370	0.842700
C1301	C130	0.578420	0.060760	0.176600
N251	N25	0.579150	0.995780	0.446400
N261	N26	0.512650	0.951520	0.737400
C1311	C131	0.651160	0.903720	0.791200
C1321	C132	0.681280	0.858600	0.709400
H771	H77	0.673300	0.847600	0.591900
N271	N27	0.721050	0.829610	0.786100
C1331	C133	0.732000	0.845500	0.953300
H781	H78	0.760200	0.825500	0.009500
C1341	C134	0.704150	0.889500	0.046100
H791	H79	0.712700	0.899400	0.163900
C1351	C135	0.663250	0.919200	0.963800
H801	H80	0.643600	0.950000	0.024800
C1361	C136	0.612370	0.093800	0.048200
C1371	C137	0.647110	0.138220	0.110100
H811	H81	0.648700	0.145300	0.232900
N281	N28	0.678570	0.171640	0.006900
C1381	C138	0.675520	0.162160	0.833500
H821	H82	0.697700	0.185400	0.758500
C1391	C139	0.641450	0.120000	0.760000
H831	H83	0.640000	0.114800	0.636500
C1401	C140	0.609420	0.085290	0.867400
H841	H84	0.585700	0.056000	0.818800
Cd81	Cd8	0.001740	0.027150	0.960040
C1411	C141	0.896790	0.974070	0.809400
C1421	C142	0.842110	0.984030	0.827900
H851	H85	0.816200	0.968400	0.751900
C1431	C143	0.834570	0.019590	0.972700
H861	H86	0.802500	0.033700	0.016900
C1441	C144	0.884000	0.032150	0.047200
C1451	C145	0.893790	0.066700	0.203200
C1461	C146	0.941870	0.075400	0.286000
C1471	C147	0.951400	0.117250	0.432800
H871	H87	0.926500	0.141600	0.493700
C1481	C148	0.002200	0.115160	0.466800
H881	H88	0.019600	0.137700	0.556400
C1491	C149	0.025100	0.072630	0.342700
C1501	C150	0.921580	0.939240	0.676600
N291	N29	0.920850	0.004220	0.946400
N301	N30	0.987350	0.048480	0.237400
C1511	C151	0.848840	0.096280	0.291200
C1521	C152	0.818720	0.141400	0.209400
H891	H89	0.826700	0.152400	0.091900
N311	N31	0.778950	0.170390	0.286100
C1531	C153	0.768000	0.154500	0.453300
H901	H90	0.739800	0.174500	0.509500
C1541	C154	0.795850	0.110500	0.546100
H911	H91	0.787300	0.100600	0.663900
C1551	C155	0.836750	0.080800	0.463800
H921	H92	0.856400	0.050000	0.524800
C1561	C156	0.887630	0.906200	0.548200
C1571	C157	0.852890	0.861780	0.610100
H931	H93	0.851300	0.854700	0.732900
N321	N32	0.821430	0.828360	0.506900
C1581	C158	0.824480	0.837840	0.333500
H941	H94	0.802300	0.814600	0.258500
C1591	C159	0.858550	0.880000	0.260000
H951	H95	0.860000	0.885200	0.136500
C1601	C160	0.890580	0.914710	0.367400
H961	H96	0.914300	0.944000	0.318800
Cd91	Cd9	0.769120	0.750000	0.639470
Cl11	Cl1	0.834240	0.750000	0.908770
Cl21	Cl2	0.709030	0.750000	0.373410
Cd101	Cd10	0.730880	0.250000	0.139470
Cl31	Cl3	0.665760	0.250000	0.408770
Cl41	Cl4	0.790970	0.250000	0.873410
Cd111	Cd11	0.230880	0.250000	0.360530
Cl51	Cl5	0.165760	0.250000	0.091230
Cl61	Cl6	0.290970	0.250000	0.626590
Cd121	Cd12	0.269120	0.750000	0.860530
Cl71	Cl7	0.334240	0.750000	0.591230
Cl81	Cl8	0.209030	0.750000	0.126590
