data_UQEGII_clean_PM
_symmetry_space_group_name_H-M	'P1'
_cell_length_a	13.612000
_cell_length_b	13.612000
_cell_length_c	29.956000
_cell_angle_alpha	90.000000
_cell_angle_beta	90.000000
_cell_angle_gamma	90.000000
_symmetry_Int_Tables_number 1

loop_
_symmetry_equiv_pos_as_xyz
'x,y,z'

loop_
_atom_site_label
_atom_site_type_symbol
_atom_site_fract_x
_atom_site_fract_y
_atom_site_fract_z
Mo11	Mo1	0.162740	0.108980	0.419340
O11	O1	0.089600	0.986600	0.470000
N11	N1	0.056700	0.141700	0.253200
C11	C1	0.131000	0.194200	0.234200
C21	C2	0.141800	0.283700	0.255400
N21	N2	0.021700	0.199900	0.286300
C31	C3	0.072100	0.285900	0.288200
O21	O2	0.251400	0.048900	0.455500
C41	C4	0.053200	0.359100	0.324900
H11	H1	0.999900	0.336500	0.343200
H21	H2	0.036500	0.421500	0.312100
H31	H3	0.111300	0.366000	0.342800
C51	C5	0.190200	0.152000	0.196500
H41	H4	0.165500	0.088000	0.189100
H51	H5	0.257700	0.146800	0.205400
H61	H6	0.185200	0.194200	0.170900
O31	O3	0.141200	0.211700	0.455600
O41	O4	0.024600	0.128600	0.394000
Mo21	Mo2	0.837260	0.891020	0.419340
O51	O5	0.910400	0.013400	0.470000
N31	N3	0.943300	0.858300	0.253200
C61	C6	0.869000	0.805800	0.234200
C71	C7	0.858200	0.716300	0.255400
N41	N4	0.978300	0.800100	0.286300
C81	C8	0.927900	0.714100	0.288200
O61	O6	0.748600	0.951100	0.455500
C91	C9	0.946800	0.640900	0.324900
H71	H7	0.000100	0.663500	0.343200
H81	H8	0.963500	0.578500	0.312100
H91	H9	0.888700	0.634000	0.342800
C101	C10	0.809800	0.848000	0.196500
H101	H10	0.834500	0.912000	0.189100
H111	H11	0.742300	0.853200	0.205400
H121	H12	0.814800	0.805800	0.170900
O71	O7	0.858800	0.788300	0.455600
O81	O8	0.975400	0.871400	0.394000
Mo31	Mo3	0.891020	0.162740	0.419340
O91	O9	0.013400	0.089600	0.470000
N51	N5	0.858300	0.056700	0.253200
C111	C11	0.805800	0.131000	0.234200
C121	C12	0.716300	0.141800	0.255400
N61	N6	0.800100	0.021700	0.286300
C131	C13	0.714100	0.072100	0.288200
O101	O10	0.951100	0.251400	0.455500
C141	C14	0.640900	0.053200	0.324900
H131	H13	0.663500	0.999900	0.343200
H141	H14	0.578500	0.036500	0.312100
H151	H15	0.634000	0.111300	0.342800
C151	C15	0.848000	0.190200	0.196500
H161	H16	0.912000	0.165500	0.189100
H171	H17	0.853200	0.257700	0.205400
H181	H18	0.805800	0.185200	0.170900
O111	O11	0.788300	0.141200	0.455600
O121	O12	0.871400	0.024600	0.394000
Mo41	Mo4	0.108980	0.837260	0.419340
O131	O13	0.986600	0.910400	0.470000
N71	N7	0.141700	0.943300	0.253200
C161	C16	0.194200	0.869000	0.234200
C171	C17	0.283700	0.858200	0.255400
N81	N8	0.199900	0.978300	0.286300
C181	C18	0.285900	0.927900	0.288200
O141	O14	0.048900	0.748600	0.455500
C191	C19	0.359100	0.946800	0.324900
H191	H19	0.336500	0.000100	0.343200
H201	H20	0.421500	0.963500	0.312100
H211	H21	0.366000	0.888700	0.342800
C201	C20	0.152000	0.809800	0.196500
H221	H22	0.088000	0.834500	0.189100
H231	H23	0.146800	0.742300	0.205400
H241	H24	0.194200	0.814800	0.170900
O151	O15	0.211700	0.858800	0.455600
O161	O16	0.128600	0.975400	0.394000
Mo51	Mo5	0.337260	0.608980	0.080660
O171	O17	0.410400	0.486600	0.030000
N91	N9	0.443300	0.641700	0.246800
C211	C21	0.369000	0.694200	0.265800
C221	C22	0.358200	0.783700	0.244600
N101	N10	0.478300	0.699900	0.213700
C231	C23	0.427900	0.785900	0.211800
O181	O18	0.248600	0.548900	0.044500
C241	C24	0.446800	0.859100	0.175100
H251	H25	0.500100	0.836500	0.156800
H261	H26	0.463500	0.921500	0.187900
H271	H27	0.388700	0.866000	0.157200
C251	C25	0.309800	0.652000	0.303500
H281	H28	0.334500	0.588000	0.310900
H291	H29	0.242300	0.646800	0.294600
H301	H30	0.314800	0.694200	0.329100
O191	O19	0.358800	0.711700	0.044400
O201	O20	0.475400	0.628600	0.106000
Mo61	Mo6	0.662740	0.391020	0.080660
O211	O21	0.589600	0.513400	0.030000
N111	N11	0.556700	0.358300	0.246800
C261	C26	0.631000	0.305800	0.265800
C271	C27	0.641800	0.216300	0.244600
N121	N12	0.521700	0.300100	0.213700
C281	C28	0.572100	0.214100	0.211800
O221	O22	0.751400	0.451100	0.044500
C291	C29	0.553200	0.140900	0.175100
H311	H31	0.499900	0.163500	0.156800
H321	H32	0.536500	0.078500	0.187900
H331	H33	0.611300	0.134000	0.157200
C301	C30	0.690200	0.348000	0.303500
H341	H34	0.665500	0.412000	0.310900
H351	H35	0.757700	0.353200	0.294600
H361	H36	0.685200	0.305800	0.329100
O231	O23	0.641200	0.288300	0.044400
O241	O24	0.524600	0.371400	0.106000
Mo71	Mo7	0.608980	0.662740	0.080660
O251	O25	0.486600	0.589600	0.030000
N131	N13	0.641700	0.556700	0.246800
C311	C31	0.694200	0.631000	0.265800
C321	C32	0.783700	0.641800	0.244600
N141	N14	0.699900	0.521700	0.213700
C331	C33	0.785900	0.572100	0.211800
O261	O26	0.548900	0.751400	0.044500
C341	C34	0.859100	0.553200	0.175100
H371	H37	0.836500	0.499900	0.156800
H381	H38	0.921500	0.536500	0.187900
H391	H39	0.866000	0.611300	0.157200
C351	C35	0.652000	0.690200	0.303500
H401	H40	0.588000	0.665500	0.310900
H411	H41	0.646800	0.757700	0.294600
H421	H42	0.694200	0.685200	0.329100
O271	O27	0.711700	0.641200	0.044400
O281	O28	0.628600	0.524600	0.106000
Mo81	Mo8	0.391020	0.337260	0.080660
O291	O29	0.513400	0.410400	0.030000
N151	N15	0.358300	0.443300	0.246800
C361	C36	0.305800	0.369000	0.265800
C371	C37	0.216300	0.358200	0.244600
N161	N16	0.300100	0.478300	0.213700
C381	C38	0.214100	0.427900	0.211800
O301	O30	0.451100	0.248600	0.044500
C391	C39	0.140900	0.446800	0.175100
H431	H43	0.163500	0.500100	0.156800
H441	H44	0.078500	0.463500	0.187900
H451	H45	0.134000	0.388700	0.157200
C401	C40	0.348000	0.309800	0.303500
H461	H46	0.412000	0.334500	0.310900
H471	H47	0.353200	0.242300	0.294600
H481	H48	0.305800	0.314800	0.329100
O311	O31	0.288300	0.358800	0.044400
O321	O32	0.371400	0.475400	0.106000
Mo91	Mo9	0.837260	0.891020	0.580660
O331	O33	0.910400	0.013400	0.530000
N171	N17	0.943300	0.858300	0.746800
C411	C41	0.869000	0.805800	0.765800
C421	C42	0.858200	0.716300	0.744600
N181	N18	0.978300	0.800100	0.713700
C431	C43	0.927900	0.714100	0.711800
O341	O34	0.748600	0.951100	0.544500
C441	C44	0.946800	0.640900	0.675100
H491	H49	0.000100	0.663500	0.656800
H501	H50	0.963500	0.578500	0.687900
H511	H51	0.888700	0.634000	0.657200
C451	C45	0.809800	0.848000	0.803500
H521	H52	0.834500	0.912000	0.810900
H531	H53	0.742300	0.853200	0.794600
H541	H54	0.814800	0.805800	0.829100
O351	O35	0.858800	0.788300	0.544400
O361	O36	0.975400	0.871400	0.606000
Mo101	Mo10	0.162740	0.108980	0.580660
O371	O37	0.089600	0.986600	0.530000
N191	N19	0.056700	0.141700	0.746800
C461	C46	0.131000	0.194200	0.765800
C471	C47	0.141800	0.283700	0.744600
N201	N20	0.021700	0.199900	0.713700
C481	C48	0.072100	0.285900	0.711800
O381	O38	0.251400	0.048900	0.544500
C491	C49	0.053200	0.359100	0.675100
H551	H55	0.999900	0.336500	0.656800
H561	H56	0.036500	0.421500	0.687900
H571	H57	0.111300	0.366000	0.657200
C501	C50	0.190200	0.152000	0.803500
H581	H58	0.165500	0.088000	0.810900
H591	H59	0.257700	0.146800	0.794600
H601	H60	0.185200	0.194200	0.829100
O391	O39	0.141200	0.211700	0.544400
O401	O40	0.024600	0.128600	0.606000
Mo111	Mo11	0.108980	0.837260	0.580660
O411	O41	0.986600	0.910400	0.530000
N211	N21	0.141700	0.943300	0.746800
C511	C51	0.194200	0.869000	0.765800
C521	C52	0.283700	0.858200	0.744600
N221	N22	0.199900	0.978300	0.713700
C531	C53	0.285900	0.927900	0.711800
O421	O42	0.048900	0.748600	0.544500
C541	C54	0.359100	0.946800	0.675100
H611	H61	0.336500	0.000100	0.656800
H621	H62	0.421500	0.963500	0.687900
H631	H63	0.366000	0.888700	0.657200
C551	C55	0.152000	0.809800	0.803500
H641	H64	0.088000	0.834500	0.810900
H651	H65	0.146800	0.742300	0.794600
H661	H66	0.194200	0.814800	0.829100
O431	O43	0.211700	0.858800	0.544400
O441	O44	0.128600	0.975400	0.606000
Mo121	Mo12	0.891020	0.162740	0.580660
O451	O45	0.013400	0.089600	0.530000
N231	N23	0.858300	0.056700	0.746800
C561	C56	0.805800	0.131000	0.765800
C571	C57	0.716300	0.141800	0.744600
N241	N24	0.800100	0.021700	0.713700
C581	C58	0.714100	0.072100	0.711800
O461	O46	0.951100	0.251400	0.544500
C591	C59	0.640900	0.053200	0.675100
H671	H67	0.663500	0.999900	0.656800
H681	H68	0.578500	0.036500	0.687900
H691	H69	0.634000	0.111300	0.657200
C601	C60	0.848000	0.190200	0.803500
H701	H70	0.912000	0.165500	0.810900
H711	H71	0.853200	0.257700	0.794600
H721	H72	0.805800	0.185200	0.829100
O471	O47	0.788300	0.141200	0.544400
O481	O48	0.871400	0.024600	0.606000
Mo131	Mo13	0.662740	0.391020	0.919340
O491	O49	0.589600	0.513400	0.970000
N251	N25	0.556700	0.358300	0.753200
C611	C61	0.631000	0.305800	0.734200
C621	C62	0.641800	0.216300	0.755400
N261	N26	0.521700	0.300100	0.786300
C631	C63	0.572100	0.214100	0.788200
O501	O50	0.751400	0.451100	0.955500
C641	C64	0.553200	0.140900	0.824900
H731	H73	0.499900	0.163500	0.843200
H741	H74	0.536500	0.078500	0.812100
H751	H75	0.611300	0.134000	0.842800
C651	C65	0.690200	0.348000	0.696500
H761	H76	0.665500	0.412000	0.689100
H771	H77	0.757700	0.353200	0.705400
H781	H78	0.685200	0.305800	0.670900
O511	O51	0.641200	0.288300	0.955600
O521	O52	0.524600	0.371400	0.894000
Mo141	Mo14	0.337260	0.608980	0.919340
O531	O53	0.410400	0.486600	0.970000
N271	N27	0.443300	0.641700	0.753200
C661	C66	0.369000	0.694200	0.734200
C671	C67	0.358200	0.783700	0.755400
N281	N28	0.478300	0.699900	0.786300
C681	C68	0.427900	0.785900	0.788200
O541	O54	0.248600	0.548900	0.955500
C691	C69	0.446800	0.859100	0.824900
H791	H79	0.500100	0.836500	0.843200
H801	H80	0.463500	0.921500	0.812100
H811	H81	0.388700	0.866000	0.842800
C701	C70	0.309800	0.652000	0.696500
H821	H82	0.334500	0.588000	0.689100
H831	H83	0.242300	0.646800	0.705400
H841	H84	0.314800	0.694200	0.670900
O551	O55	0.358800	0.711700	0.955600
O561	O56	0.475400	0.628600	0.894000
Mo151	Mo15	0.391020	0.337260	0.919340
O571	O57	0.513400	0.410400	0.970000
N291	N29	0.358300	0.443300	0.753200
C711	C71	0.305800	0.369000	0.734200
C721	C72	0.216300	0.358200	0.755400
N301	N30	0.300100	0.478300	0.786300
C731	C73	0.214100	0.427900	0.788200
O581	O58	0.451100	0.248600	0.955500
C741	C74	0.140900	0.446800	0.824900
H851	H85	0.163500	0.500100	0.843200
H861	H86	0.078500	0.463500	0.812100
H871	H87	0.134000	0.388700	0.842800
C751	C75	0.348000	0.309800	0.696500
H881	H88	0.412000	0.334500	0.689100
H891	H89	0.353200	0.242300	0.705400
H901	H90	0.305800	0.314800	0.670900
O591	O59	0.288300	0.358800	0.955600
O601	O60	0.371400	0.475400	0.894000
Mo161	Mo16	0.608980	0.662740	0.919340
O611	O61	0.486600	0.589600	0.970000
N311	N31	0.641700	0.556700	0.753200
C761	C76	0.694200	0.631000	0.734200
C771	C77	0.783700	0.641800	0.755400
N321	N32	0.699900	0.521700	0.786300
C781	C78	0.785900	0.572100	0.788200
O621	O62	0.548900	0.751400	0.955500
C791	C79	0.859100	0.553200	0.824900
H911	H91	0.836500	0.499900	0.843200
H921	H92	0.921500	0.536500	0.812100
H931	H93	0.866000	0.611300	0.842800
C801	C80	0.652000	0.690200	0.696500
H941	H94	0.588000	0.665500	0.689100
H951	H95	0.646800	0.757700	0.705400
H961	H96	0.694200	0.685200	0.670900
O631	O63	0.711700	0.641200	0.955600
O641	O64	0.628600	0.524600	0.894000
Ni11	Ni1	0.000000	0.000000	0.247270
V11	V1	0.000000	0.000000	0.370390
O651	O65	0.000000	0.000000	0.316000
Ni21	Ni2	0.500000	0.500000	0.252730
V21	V2	0.500000	0.500000	0.129610
O661	O66	0.500000	0.500000	0.184000
Ni31	Ni3	0.000000	0.000000	0.752730
V31	V3	0.000000	0.000000	0.629610
O671	O67	0.000000	0.000000	0.684000
Ni41	Ni4	0.500000	0.500000	0.747270
V41	V4	0.500000	0.500000	0.870390
O681	O68	0.500000	0.500000	0.816000
P11	P1	0.000000	0.000000	0.500000
P21	P2	0.500000	0.500000	0.000000
Mo171	Mo17	0.260280	0.948000	0.500000
V51	V5	0.247200	0.162100	0.500000
Mo181	Mo18	0.739720	0.052000	0.500000
V61	V6	0.752800	0.837900	0.500000
Mo191	Mo19	0.052000	0.260280	0.500000
V71	V7	0.837900	0.247200	0.500000
Mo201	Mo20	0.948000	0.739720	0.500000
V81	V8	0.162100	0.752800	0.500000
Mo211	Mo21	0.239720	0.448000	0.000000
V91	V9	0.252800	0.662100	0.000000
Mo221	Mo22	0.760280	0.552000	0.000000
V101	V10	0.747200	0.337900	0.000000
Mo231	Mo23	0.448000	0.760280	0.000000
V111	V11	0.662100	0.747200	0.000000
Mo241	Mo24	0.552000	0.239720	0.000000
V121	V12	0.337900	0.252800	0.000000
