data_UQERIT_clean_PM
_symmetry_space_group_name_H-M	'P1'
_cell_length_a	12.759300
_cell_length_b	15.029600
_cell_length_c	16.909800
_cell_angle_alpha	114.509000
_cell_angle_beta	94.816000
_cell_angle_gamma	90.432000
_symmetry_Int_Tables_number 1

loop_
_symmetry_equiv_pos_as_xyz
'x,y,z'

loop_
_atom_site_label
_atom_site_type_symbol
_atom_site_fract_x
_atom_site_fract_y
_atom_site_fract_z
C11	C1	0.839900	0.040500	0.592500
H11	H1	0.868700	0.974500	0.568400
H21	H2	0.762300	0.033100	0.580400
C21	C2	0.870100	0.091000	0.690500
H31	H3	0.946000	0.110600	0.700800
H41	H4	0.859300	0.043500	0.716000
C31	C3	0.808200	0.181300	0.737900
H51	H5	0.825400	0.233400	0.719000
H61	H6	0.731700	0.164600	0.724100
C41	C4	0.837600	0.216600	0.835100
H71	H7	0.826400	0.162500	0.852900
H81	H8	0.912800	0.238700	0.849500
C51	C5	0.785500	0.333900	0.969800
C61	C6	0.849800	0.293000	0.015900
H91	H9	0.888300	0.237100	0.985600
C71	C7	0.856800	0.335500	0.106800
C81	C8	0.802400	0.418400	0.152000
H101	H10	0.807100	0.447100	0.214000
C91	C9	0.740000	0.458900	0.103400
C101	C10	0.732100	0.416300	0.013400
H111	H11	0.689500	0.444100	0.981400
C111	C11	0.683500	0.549700	0.150700
C121	C12	0.929800	0.292400	0.154100
C131	C13	0.223800	0.083100	0.156700
C141	C14	0.294700	0.003200	0.107700
C151	C15	0.300400	0.979400	0.019700
H121	H12	0.263400	0.015600	0.992600
C161	C16	0.360700	0.902600	0.971600
C171	C17	0.409900	0.847400	0.011400
H131	H13	0.447800	0.792300	0.977800
C181	C18	0.404500	0.871400	0.097900
C191	C19	0.346600	0.951300	0.149200
H141	H14	0.343400	0.968800	0.209800
C201	C20	0.458700	0.811500	0.141900
C211	C21	0.336400	0.940400	0.846800
H151	H15	0.368000	0.007200	0.880900
H161	H16	0.258900	0.943300	0.846200
C221	C22	0.367900	0.900200	0.754600
H171	H17	0.445000	0.893000	0.756400
H181	H18	0.351100	0.947900	0.729500
C231	C23	0.313200	0.801500	0.694900
H191	H19	0.336500	0.751600	0.715800
H201	H20	0.236200	0.806300	0.697800
C241	C24	0.337600	0.769300	0.601000
H211	H21	0.308900	0.815200	0.577200
H221	H22	0.414700	0.767600	0.597300
C251	C25	0.300500	0.626800	0.465600
C261	C26	0.359500	0.664900	0.420600
H231	H23	0.396600	0.726500	0.450400
C271	C27	0.363400	0.610900	0.330500
C281	C28	0.308300	0.521000	0.285400
H241	H24	0.309100	0.486700	0.224000
C291	C29	0.252500	0.482500	0.331400
C301	C30	0.247500	0.534200	0.421900
H251	H25	0.209000	0.507200	0.453000
C311	C31	0.196400	0.384900	0.287200
C321	C32	0.433800	0.649400	0.284900
O11	O1	0.773600	0.295500	0.880500
O21	O2	0.644700	0.596300	0.106900
O31	O3	0.673800	0.582400	0.230700
O41	O4	0.944400	0.328900	0.236400
O51	O5	0.982200	0.220500	0.109100
O61	O6	0.166500	0.119900	0.114700
O71	O7	0.221200	0.113300	0.237700
O81	O8	0.471500	0.842900	0.222300
O91	O9	0.495200	0.730600	0.093100
O101	O10	0.374300	0.875200	0.885600
O111	O11	0.288500	0.672500	0.552400
O121	O12	0.178000	0.346200	0.206000
O131	O13	0.167100	0.341600	0.332300
O141	O14	0.434700	0.606900	0.202400
O151	O15	0.496100	0.721100	0.327700
C331	C33	0.973600	0.120500	0.289400
C341	C34	0.917500	0.068700	0.331300
C351	C35	0.923700	0.106300	0.421700
H261	H26	0.964300	0.165100	0.456000
C361	C36	0.869600	0.057400	0.463000
C371	C37	0.808600	0.973300	0.411600
H271	H27	0.771700	0.940000	0.438500
C381	C38	0.800800	0.937500	0.321500
C391	C39	0.854600	0.982700	0.281200
H281	H28	0.849800	0.956400	0.219300
C401	C40	0.727200	0.851100	0.269300
O161	O16	0.972700	0.087400	0.207000
O171	O17	0.025500	0.199700	0.334700
O181	O18	0.702400	0.828200	0.190700
O191	O19	0.687800	0.806000	0.309300
O201	O20	0.882300	0.099600	0.551800
In11	In1	0.081780	0.218210	0.221320
In21	In2	0.571240	0.710660	0.208790
C411	C41	0.160100	0.959500	0.407500
H291	H29	0.131300	0.025500	0.431600
H301	H30	0.237700	0.966900	0.419600
C421	C42	0.129900	0.909000	0.309500
H311	H31	0.054000	0.889400	0.299200
H321	H32	0.140700	0.956500	0.284000
C431	C43	0.191800	0.818700	0.262100
H331	H33	0.174600	0.766600	0.281000
H341	H34	0.268300	0.835400	0.275900
C441	C44	0.162400	0.783400	0.164900
H351	H35	0.173600	0.837500	0.147100
H361	H36	0.087200	0.761300	0.150500
C451	C45	0.214500	0.666100	0.030200
C461	C46	0.150200	0.707000	0.984100
H371	H37	0.111700	0.762900	0.014400
C471	C47	0.143200	0.664500	0.893200
C481	C48	0.197600	0.581600	0.848000
H381	H38	0.192900	0.552900	0.786000
C491	C49	0.260000	0.541100	0.896600
C501	C50	0.267900	0.583700	0.986600
H391	H39	0.310500	0.555900	0.018600
C511	C51	0.316500	0.450300	0.849300
C521	C52	0.070200	0.707600	0.845900
C531	C53	0.776200	0.916900	0.843300
C541	C54	0.705300	0.996800	0.892300
C551	C55	0.699600	0.020600	0.980300
H401	H40	0.736600	0.984400	0.007400
C561	C56	0.639300	0.097400	0.028400
C571	C57	0.590100	0.152600	0.988600
H411	H41	0.552200	0.207700	0.022200
C581	C58	0.595500	0.128600	0.902100
C591	C59	0.653400	0.048700	0.850800
H421	H42	0.656600	0.031200	0.790200
C601	C60	0.541300	0.188500	0.858100
C611	C61	0.663600	0.059600	0.153200
H431	H43	0.632000	0.992800	0.119100
H441	H44	0.741100	0.056700	0.153800
C621	C62	0.632100	0.099800	0.245400
H451	H45	0.555000	0.107000	0.243600
H461	H46	0.648900	0.052100	0.270500
C631	C63	0.686800	0.198500	0.305100
H471	H47	0.663500	0.248400	0.284200
H481	H48	0.763800	0.193700	0.302200
C641	C64	0.662400	0.230700	0.399000
H491	H49	0.691100	0.184800	0.422800
H501	H50	0.585300	0.232400	0.402700
C651	C65	0.699500	0.373200	0.534400
C661	C66	0.640500	0.335100	0.579400
H511	H51	0.603400	0.273500	0.549600
C671	C67	0.636600	0.389100	0.669500
C681	C68	0.691700	0.479000	0.714600
H521	H52	0.690900	0.513300	0.776000
C691	C69	0.747500	0.517500	0.668600
C701	C70	0.752500	0.465800	0.578100
H531	H53	0.791000	0.492800	0.547000
C711	C71	0.803600	0.615100	0.712800
C721	C72	0.566200	0.350600	0.715100
O211	O21	0.226400	0.704500	0.119500
O221	O22	0.355300	0.403700	0.893100
O231	O23	0.326200	0.417600	0.769300
O241	O24	0.055600	0.671100	0.763600
O251	O25	0.017800	0.779500	0.890900
O261	O26	0.833500	0.880100	0.885300
O271	O27	0.778800	0.886700	0.762300
O281	O28	0.528500	0.157100	0.777700
O291	O29	0.504800	0.269400	0.906900
O301	O30	0.625700	0.124800	0.114400
O311	O31	0.711500	0.327500	0.447600
O321	O32	0.822000	0.653800	0.794000
O331	O33	0.832900	0.658400	0.667700
O341	O34	0.565300	0.393100	0.797600
O351	O35	0.503900	0.278900	0.672300
C731	C73	0.026400	0.879500	0.710600
C741	C74	0.082500	0.931300	0.668700
C751	C75	0.076300	0.893700	0.578300
H541	H54	0.035700	0.834900	0.544000
C761	C76	0.130400	0.942600	0.537000
C771	C77	0.191400	0.026700	0.588400
H551	H55	0.228300	0.060000	0.561500
C781	C78	0.199200	0.062500	0.678500
C791	C79	0.145400	0.017300	0.718800
H561	H56	0.150200	0.043600	0.780700
C801	C80	0.272800	0.148900	0.730700
O361	O36	0.027300	0.912600	0.793000
O371	O37	0.974500	0.800300	0.665300
O381	O38	0.297600	0.171800	0.809300
O391	O39	0.312200	0.194000	0.690700
O401	O40	0.117700	0.900400	0.448200
In31	In3	0.918220	0.781790	0.778680
In41	In4	0.428760	0.289340	0.791210
