data_UQOGAK_clean_PM
_symmetry_space_group_name_H-M	'P1'
_cell_length_a	14.486300
_cell_length_b	15.973300
_cell_length_c	16.521400
_cell_angle_alpha	90.000000
_cell_angle_beta	101.128000
_cell_angle_gamma	90.000000
_symmetry_Int_Tables_number 1

loop_
_symmetry_equiv_pos_as_xyz
'x,y,z'

loop_
_atom_site_label
_atom_site_type_symbol
_atom_site_fract_x
_atom_site_fract_y
_atom_site_fract_z
C11	C1	0.021400	0.532400	0.400900
H11	H1	0.052200	0.484500	0.388400
C21	C2	0.925200	0.534500	0.379900
H21	H2	0.892500	0.488800	0.353800
C31	C3	0.877100	0.604240	0.397380
C41	C4	0.929900	0.668100	0.439300
H31	H3	0.901400	0.716400	0.454400
C51	C5	0.026200	0.658200	0.458200
H41	H4	0.060600	0.701100	0.488000
C61	C6	0.771500	0.606910	0.373400
H51	H5	0.753000	0.597000	0.314600
H61	H6	0.745000	0.562500	0.401800
C71	C7	0.745300	0.754160	0.344990
C81	C8	0.744800	0.749260	0.261310
H71	H7	0.739100	0.697700	0.234700
C91	C9	0.753100	0.822440	0.217120
C101	C10	0.763000	0.898850	0.257110
H81	H8	0.768900	0.947500	0.227600
C111	C11	0.764100	0.903230	0.341130
C121	C12	0.754900	0.831040	0.385150
H91	H9	0.755100	0.833900	0.441400
C131	C13	0.773600	0.986610	0.385000
C141	C14	0.749200	0.817260	0.125490
C151	C15	0.739800	0.033250	0.873900
C161	C16	0.748300	0.117590	0.835430
C171	C17	0.753500	0.123470	0.752280
H101	H10	0.749300	0.075400	0.720100
C181	C18	0.764900	0.200450	0.717500
C191	C19	0.769100	0.273130	0.765570
H111	H11	0.777100	0.325000	0.742400
C201	C20	0.761300	0.267560	0.847920
C211	C21	0.751600	0.189100	0.882820
H121	H12	0.747300	0.185100	0.938100
C221	C22	0.772300	0.206720	0.628360
C231	C23	0.802100	0.411500	0.878400
H131	H13	0.783500	0.457200	0.910500
H141	H14	0.779700	0.423900	0.820400
C241	C24	0.907400	0.404440	0.895300
C251	C25	0.960600	0.426600	0.838300
H151	H15	0.931400	0.446400	0.786800
C261	C26	0.056400	0.419500	0.857100
H161	H16	0.090400	0.436100	0.817500
C271	C27	0.051200	0.369600	0.983500
H171	H17	0.081400	0.349400	0.034600
C281	C28	0.955500	0.376200	0.969300
H181	H18	0.922900	0.361200	0.010400
Mn11	Mn1	0.731940	0.892460	0.955790
Mn21	Mn2	0.733950	0.628990	0.040610
N11	N1	0.073600	0.595390	0.438520
N21	N2	0.104400	0.390170	0.929240
O11	O1	0.747740	0.884590	0.086230
O21	O2	0.748100	0.746860	0.093640
O31	O3	0.771290	0.052990	0.343150
O41	O4	0.781160	0.988490	0.461720
O51	O5	0.752240	0.028640	0.951650
O61	O6	0.720050	0.970120	0.829700
O71	O7	0.760610	0.141870	0.585850
O81	O8	0.792270	0.276980	0.602510
O91	O9	0.733770	0.685700	0.393230
O101	O10	0.759850	0.334460	0.899360
C291	C29	0.478600	0.032400	0.099100
H191	H19	0.447800	0.984500	0.111600
C301	C30	0.574800	0.034500	0.120100
H201	H20	0.607500	0.988800	0.146200
C311	C31	0.622900	0.104240	0.102620
C321	C32	0.570100	0.168100	0.060700
H211	H21	0.598600	0.216400	0.045600
C331	C33	0.473800	0.158200	0.041800
H221	H22	0.439400	0.201100	0.012000
C341	C34	0.728500	0.106910	0.126600
H231	H23	0.747000	0.097000	0.185400
H241	H24	0.755000	0.062500	0.098200
C351	C35	0.754700	0.254160	0.155010
C361	C36	0.755200	0.249260	0.238690
H251	H25	0.760900	0.197700	0.265300
C371	C37	0.746900	0.322440	0.282880
C381	C38	0.737000	0.398850	0.242890
H261	H26	0.731100	0.447500	0.272400
C391	C39	0.735900	0.403230	0.158870
C401	C40	0.745100	0.331040	0.114850
H271	H27	0.744900	0.333900	0.058600
C411	C41	0.726400	0.486610	0.115000
C421	C42	0.750800	0.317260	0.374510
C431	C43	0.760200	0.533250	0.626100
C441	C44	0.751700	0.617590	0.664570
C451	C45	0.746500	0.623470	0.747720
H281	H28	0.750700	0.575400	0.779900
C461	C46	0.735100	0.700450	0.782500
C471	C47	0.730900	0.773130	0.734430
H291	H29	0.722900	0.825000	0.757600
C481	C48	0.738700	0.767560	0.652080
C491	C49	0.748400	0.689100	0.617180
H301	H30	0.752700	0.685100	0.561900
C501	C50	0.727700	0.706720	0.871640
C511	C51	0.697900	0.911500	0.621600
H311	H31	0.716500	0.957200	0.589500
H321	H32	0.720300	0.923900	0.679600
C521	C52	0.592600	0.904440	0.604700
C531	C53	0.539400	0.926600	0.661700
H331	H33	0.568600	0.946400	0.713200
C541	C54	0.443600	0.919500	0.642900
H341	H34	0.409600	0.936100	0.682500
C551	C55	0.448800	0.869600	0.516500
H351	H35	0.418600	0.849400	0.465400
C561	C56	0.544500	0.876200	0.530700
H361	H36	0.577100	0.861200	0.489600
Mn31	Mn3	0.768060	0.392460	0.544210
Mn41	Mn4	0.766050	0.128990	0.459390
N31	N3	0.426400	0.095390	0.061480
N41	N4	0.395600	0.890170	0.570760
O111	O11	0.752260	0.384590	0.413770
O121	O12	0.751900	0.246860	0.406360
O131	O13	0.728710	0.552990	0.156850
O141	O14	0.718840	0.488490	0.038280
O151	O15	0.747760	0.528640	0.548350
O161	O16	0.779950	0.470120	0.670300
O171	O17	0.739390	0.641870	0.914150
O181	O18	0.707730	0.776980	0.897490
O191	O19	0.766230	0.185700	0.106770
O201	O20	0.740150	0.834460	0.600640
C571	C57	0.978600	0.467600	0.599100
H371	H37	0.947800	0.515500	0.611600
C581	C58	0.074800	0.465500	0.620100
H381	H38	0.107500	0.511200	0.646200
C591	C59	0.122900	0.395760	0.602620
C601	C60	0.070100	0.331900	0.560700
H391	H39	0.098600	0.283600	0.545600
C611	C61	0.973800	0.341800	0.541800
H401	H40	0.939400	0.298900	0.512000
C621	C62	0.228500	0.393090	0.626600
H411	H41	0.247000	0.403000	0.685400
H421	H42	0.255000	0.437500	0.598200
C631	C63	0.254700	0.245840	0.655010
C641	C64	0.255200	0.250740	0.738690
H431	H43	0.260900	0.302300	0.765300
C651	C65	0.246900	0.177560	0.782880
C661	C66	0.237000	0.101150	0.742890
H441	H44	0.231100	0.052500	0.772400
C671	C67	0.235900	0.096770	0.658870
C681	C68	0.245100	0.168960	0.614850
H451	H45	0.244900	0.166100	0.558600
C691	C69	0.226400	0.013390	0.615000
C701	C70	0.250800	0.182740	0.874510
C711	C71	0.260200	0.966750	0.126100
C721	C72	0.251700	0.882410	0.164570
C731	C73	0.246500	0.876530	0.247720
H461	H46	0.250700	0.924600	0.279900
C741	C74	0.235100	0.799550	0.282500
C751	C75	0.230900	0.726870	0.234430
H471	H47	0.222900	0.675000	0.257600
C761	C76	0.238700	0.732440	0.152080
C771	C77	0.248400	0.810900	0.117180
H481	H48	0.252700	0.814900	0.061900
C781	C78	0.227700	0.793280	0.371640
C791	C79	0.197900	0.588500	0.121600
H491	H49	0.216500	0.542800	0.089500
H501	H50	0.220300	0.576100	0.179600
C801	C80	0.092600	0.595560	0.104700
C811	C81	0.039400	0.573400	0.161700
H511	H51	0.068600	0.553600	0.213200
C821	C82	0.943600	0.580500	0.142900
H521	H52	0.909600	0.563900	0.182500
C831	C83	0.948800	0.630400	0.016500
H531	H53	0.918600	0.650600	0.965400
C841	C84	0.044500	0.623800	0.030700
H541	H54	0.077100	0.638800	0.989600
Mn51	Mn5	0.268060	0.107540	0.044210
Mn61	Mn6	0.266050	0.371010	0.959390
N51	N5	0.926400	0.404610	0.561480
N61	N6	0.895600	0.609830	0.070760
O211	O21	0.252260	0.115410	0.913770
O221	O22	0.251900	0.253140	0.906360
O231	O23	0.228710	0.947010	0.656850
O241	O24	0.218840	0.011510	0.538280
O251	O25	0.247760	0.971360	0.048350
O261	O26	0.279950	0.029880	0.170300
O271	O27	0.239390	0.858130	0.414150
O281	O28	0.207730	0.723020	0.397490
O291	O29	0.266230	0.314300	0.606770
O301	O30	0.240150	0.665540	0.100640
C851	C85	0.521400	0.967600	0.900900
H551	H55	0.552200	0.015500	0.888400
C861	C86	0.425200	0.965500	0.879900
H561	H56	0.392500	0.011200	0.853800
C871	C87	0.377100	0.895760	0.897380
C881	C88	0.429900	0.831900	0.939300
H571	H57	0.401400	0.783600	0.954400
C891	C89	0.526200	0.841800	0.958200
H581	H58	0.560600	0.798900	0.988000
C901	C90	0.271500	0.893090	0.873400
H591	H59	0.253000	0.903000	0.814600
H601	H60	0.245000	0.937500	0.901800
C911	C91	0.245300	0.745840	0.844990
C921	C92	0.244800	0.750740	0.761310
H611	H61	0.239100	0.802300	0.734700
C931	C93	0.253100	0.677560	0.717120
C941	C94	0.263000	0.601150	0.757110
H621	H62	0.268900	0.552500	0.727600
C951	C95	0.264100	0.596770	0.841130
C961	C96	0.254900	0.668960	0.885150
H631	H63	0.255100	0.666100	0.941400
C971	C97	0.273600	0.513390	0.885000
C981	C98	0.249200	0.682740	0.625490
C991	C99	0.239800	0.466750	0.373900
C1001	C100	0.248300	0.382410	0.335430
C1011	C101	0.253500	0.376530	0.252280
H641	H64	0.249300	0.424600	0.220100
C1021	C102	0.264900	0.299550	0.217500
C1031	C103	0.269100	0.226870	0.265570
H651	H65	0.277100	0.175000	0.242400
C1041	C104	0.261300	0.232440	0.347920
C1051	C105	0.251600	0.310900	0.382820
H661	H66	0.247300	0.314900	0.438100
C1061	C106	0.272300	0.293280	0.128360
C1071	C107	0.302100	0.088500	0.378400
H671	H67	0.283500	0.042800	0.410500
H681	H68	0.279700	0.076100	0.320400
C1081	C108	0.407400	0.095560	0.395300
C1091	C109	0.460600	0.073400	0.338300
H691	H69	0.431400	0.053600	0.286800
C1101	C110	0.556400	0.080500	0.357100
H701	H70	0.590400	0.063900	0.317500
C1111	C111	0.551200	0.130400	0.483500
H711	H71	0.581400	0.150600	0.534600
C1121	C112	0.455500	0.123800	0.469300
H721	H72	0.422900	0.138800	0.510400
Mn71	Mn7	0.231940	0.607540	0.455790
Mn81	Mn8	0.233950	0.871010	0.540610
N71	N7	0.573600	0.904610	0.938520
N81	N8	0.604400	0.109830	0.429240
O311	O31	0.247740	0.615410	0.586230
O321	O32	0.248100	0.753140	0.593640
O331	O33	0.271290	0.447010	0.843150
O341	O34	0.281160	0.511510	0.961720
O351	O35	0.252240	0.471360	0.451650
O361	O36	0.220050	0.529880	0.329700
O371	O37	0.260610	0.358130	0.085850
O381	O38	0.292270	0.223020	0.102510
O391	O39	0.233770	0.814300	0.893230
O401	O40	0.259850	0.165540	0.399360
