data_UQOYOP_clean_PM
_symmetry_space_group_name_H-M	'P1'
_cell_length_a	18.587000
_cell_length_b	20.070000
_cell_length_c	8.795700
_cell_angle_alpha	90.000000
_cell_angle_beta	100.611000
_cell_angle_gamma	90.000000
_symmetry_Int_Tables_number 1

loop_
_symmetry_equiv_pos_as_xyz
'x,y,z'

loop_
_atom_site_label
_atom_site_type_symbol
_atom_site_fract_x
_atom_site_fract_y
_atom_site_fract_z
N11	N1	0.498100	0.831870	0.503900
N21	N2	0.411560	0.899510	0.715600
N31	N3	0.080950	0.245500	0.773400
C11	C1	0.498500	0.847300	0.381900
C21	C2	0.417500	0.957700	0.646100
H11	H1	0.459500	0.965300	0.605100
C31	C3	0.365500	0.007600	0.631000
H21	H2	0.373700	0.048000	0.585000
C41	C4	0.302500	0.997300	0.683700
C51	C5	0.294400	0.935700	0.752500
H31	H3	0.251400	0.925700	0.787500
C61	C6	0.350000	0.890300	0.768100
H41	H4	0.344200	0.850500	0.818600
C71	C7	0.243200	0.051000	0.665800
H51	H5	0.250400	0.081200	0.583900
H61	H6	0.195900	0.029800	0.634100
C81	C8	0.241800	0.089100	0.803400
H71	H7	0.289500	0.109600	0.834900
H81	H8	0.234900	0.058500	0.884800
C91	C9	0.081200	0.203900	0.657500
H91	H9	0.046100	0.209600	0.568500
C101	C10	0.130700	0.152500	0.661000
H101	H10	0.128400	0.124200	0.576300
C111	C11	0.184200	0.143200	0.792700
C121	C12	0.182800	0.184700	0.914100
H111	H11	0.216600	0.179200	0.005500
C131	C13	0.131200	0.235100	0.901900
H121	H12	0.131300	0.262900	0.986400
N41	N4	0.998100	0.331870	0.503900
N51	N5	0.911560	0.399510	0.715600
N61	N6	0.580950	0.745500	0.773400
C141	C14	0.998500	0.347300	0.381900
C151	C15	0.917500	0.457700	0.646100
H131	H13	0.959500	0.465300	0.605100
C161	C16	0.865500	0.507600	0.631000
H141	H14	0.873700	0.548000	0.585000
C171	C17	0.802500	0.497300	0.683700
C181	C18	0.794400	0.435700	0.752500
H151	H15	0.751400	0.425700	0.787500
C191	C19	0.850000	0.390300	0.768100
H161	H16	0.844200	0.350500	0.818600
C201	C20	0.743200	0.551000	0.665800
H171	H17	0.750400	0.581200	0.583900
H181	H18	0.695900	0.529800	0.634100
C211	C21	0.741800	0.589100	0.803400
H191	H19	0.789500	0.609600	0.834900
H201	H20	0.734900	0.558500	0.884800
C221	C22	0.581200	0.703900	0.657500
H211	H21	0.546100	0.709600	0.568500
C231	C23	0.630700	0.652500	0.661000
H221	H22	0.628400	0.624200	0.576300
C241	C24	0.684200	0.643200	0.792700
C251	C25	0.682800	0.684700	0.914100
H231	H23	0.716600	0.679200	0.005500
C261	C26	0.631200	0.735100	0.901900
H241	H24	0.631300	0.762900	0.986400
N71	N7	0.501900	0.831870	0.996100
N81	N8	0.588440	0.899510	0.784400
N91	N9	0.919050	0.245500	0.726600
C271	C27	0.501500	0.847300	0.118100
C281	C28	0.582500	0.957700	0.853900
H251	H25	0.540500	0.965300	0.894900
C291	C29	0.634500	0.007600	0.869000
H261	H26	0.626300	0.048000	0.915000
C301	C30	0.697500	0.997300	0.816300
C311	C31	0.705600	0.935700	0.747500
H271	H27	0.748600	0.925700	0.712500
C321	C32	0.650000	0.890300	0.731900
H281	H28	0.655800	0.850500	0.681400
C331	C33	0.756800	0.051000	0.834200
H291	H29	0.749600	0.081200	0.916100
H301	H30	0.804100	0.029800	0.865900
C341	C34	0.758200	0.089100	0.696600
H311	H31	0.710500	0.109600	0.665100
H321	H32	0.765100	0.058500	0.615200
C351	C35	0.918800	0.203900	0.842500
H331	H33	0.953900	0.209600	0.931500
C361	C36	0.869300	0.152500	0.839000
H341	H34	0.871600	0.124200	0.923700
C371	C37	0.815800	0.143200	0.707300
C381	C38	0.817200	0.184700	0.585900
H351	H35	0.783400	0.179200	0.494500
C391	C39	0.868800	0.235100	0.598100
H361	H36	0.868700	0.262900	0.513600
N101	N10	0.001900	0.331870	0.996100
N111	N11	0.088440	0.399510	0.784400
N121	N12	0.419050	0.745500	0.726600
C401	C40	0.001500	0.347300	0.118100
C411	C41	0.082500	0.457700	0.853900
H371	H37	0.040500	0.465300	0.894900
C421	C42	0.134500	0.507600	0.869000
H381	H38	0.126300	0.548000	0.915000
C431	C43	0.197500	0.497300	0.816300
C441	C44	0.205600	0.435700	0.747500
H391	H39	0.248600	0.425700	0.712500
C451	C45	0.150000	0.390300	0.731900
H401	H40	0.155800	0.350500	0.681400
C461	C46	0.256800	0.551000	0.834200
H411	H41	0.249600	0.581200	0.916100
H421	H42	0.304100	0.529800	0.865900
C471	C47	0.258200	0.589100	0.696600
H431	H43	0.210500	0.609600	0.665100
H441	H44	0.265100	0.558500	0.615200
C481	C48	0.418800	0.703900	0.842500
H451	H45	0.453900	0.709600	0.931500
C491	C49	0.369300	0.652500	0.839000
H461	H46	0.371600	0.624200	0.923700
C501	C50	0.315800	0.643200	0.707300
C511	C51	0.317200	0.684700	0.585900
H471	H47	0.283400	0.679200	0.494500
C521	C52	0.368800	0.735100	0.598100
H481	H48	0.368700	0.762900	0.513600
Zn11	Zn1	0.500000	0.824060	0.750000
Zn21	Zn2	0.000000	0.324060	0.750000
N131	N13	0.500000	0.876200	0.250000
N141	N14	0.000000	0.376200	0.250000
N151	N15	0.501900	0.168130	0.496100
N161	N16	0.588440	0.100490	0.284400
N171	N17	0.919050	0.754500	0.226600
C531	C53	0.501500	0.152700	0.618100
C541	C54	0.582500	0.042300	0.353900
H491	H49	0.540500	0.034700	0.394900
C551	C55	0.634500	0.992400	0.369000
H501	H50	0.626300	0.952000	0.415000
C561	C56	0.697500	0.002700	0.316300
C571	C57	0.705600	0.064300	0.247500
H511	H51	0.748600	0.074300	0.212500
C581	C58	0.650000	0.109700	0.231900
H521	H52	0.655800	0.149500	0.181400
C591	C59	0.756800	0.949000	0.334200
H531	H53	0.749600	0.918800	0.416100
H541	H54	0.804100	0.970200	0.365900
C601	C60	0.758200	0.910900	0.196600
H551	H55	0.710500	0.890400	0.165100
H561	H56	0.765100	0.941500	0.115200
C611	C61	0.918800	0.796100	0.342500
H571	H57	0.953900	0.790400	0.431500
C621	C62	0.869300	0.847500	0.339000
H581	H58	0.871600	0.875800	0.423700
C631	C63	0.815800	0.856800	0.207300
C641	C64	0.817200	0.815300	0.085900
H591	H59	0.783400	0.820800	0.994500
C651	C65	0.868800	0.764900	0.098100
H601	H60	0.868700	0.737100	0.013600
N181	N18	0.001900	0.668130	0.496100
N191	N19	0.088440	0.600490	0.284400
N201	N20	0.419050	0.254500	0.226600
C661	C66	0.001500	0.652700	0.618100
C671	C67	0.082500	0.542300	0.353900
H611	H61	0.040500	0.534700	0.394900
C681	C68	0.134500	0.492400	0.369000
H621	H62	0.126300	0.452000	0.415000
C691	C69	0.197500	0.502700	0.316300
C701	C70	0.205600	0.564300	0.247500
H631	H63	0.248600	0.574300	0.212500
C711	C71	0.150000	0.609700	0.231900
H641	H64	0.155800	0.649500	0.181400
C721	C72	0.256800	0.449000	0.334200
H651	H65	0.249600	0.418800	0.416100
H661	H66	0.304100	0.470200	0.365900
C731	C73	0.258200	0.410900	0.196600
H671	H67	0.210500	0.390400	0.165100
H681	H68	0.265100	0.441500	0.115200
C741	C74	0.418800	0.296100	0.342500
H691	H69	0.453900	0.290400	0.431500
C751	C75	0.369300	0.347500	0.339000
H701	H70	0.371600	0.375800	0.423700
C761	C76	0.315800	0.356800	0.207300
C771	C77	0.317200	0.315300	0.085900
H711	H71	0.283400	0.320800	0.994500
C781	C78	0.368800	0.264900	0.098100
H721	H72	0.368700	0.237100	0.013600
N211	N21	0.498100	0.168130	0.003900
N221	N22	0.411560	0.100490	0.215600
N231	N23	0.080950	0.754500	0.273400
C791	C79	0.498500	0.152700	0.881900
C801	C80	0.417500	0.042300	0.146100
H731	H73	0.459500	0.034700	0.105100
C811	C81	0.365500	0.992400	0.131000
H741	H74	0.373700	0.952000	0.085000
C821	C82	0.302500	0.002700	0.183700
C831	C83	0.294400	0.064300	0.252500
H751	H75	0.251400	0.074300	0.287500
C841	C84	0.350000	0.109700	0.268100
H761	H76	0.344200	0.149500	0.318600
C851	C85	0.243200	0.949000	0.165800
H771	H77	0.250400	0.918800	0.083900
H781	H78	0.195900	0.970200	0.134100
C861	C86	0.241800	0.910900	0.303400
H791	H79	0.289500	0.890400	0.334900
H801	H80	0.234900	0.941500	0.384800
C871	C87	0.081200	0.796100	0.157500
H811	H81	0.046100	0.790400	0.068500
C881	C88	0.130700	0.847500	0.161000
H821	H82	0.128400	0.875800	0.076300
C891	C89	0.184200	0.856800	0.292700
C901	C90	0.182800	0.815300	0.414100
H831	H83	0.216600	0.820800	0.505500
C911	C91	0.131200	0.764900	0.401900
H841	H84	0.131300	0.737100	0.486400
N241	N24	0.998100	0.668130	0.003900
N251	N25	0.911560	0.600490	0.215600
N261	N26	0.580950	0.254500	0.273400
C921	C92	0.998500	0.652700	0.881900
C931	C93	0.917500	0.542300	0.146100
H851	H85	0.959500	0.534700	0.105100
C941	C94	0.865500	0.492400	0.131000
H861	H86	0.873700	0.452000	0.085000
C951	C95	0.802500	0.502700	0.183700
C961	C96	0.794400	0.564300	0.252500
H871	H87	0.751400	0.574300	0.287500
C971	C97	0.850000	0.609700	0.268100
H881	H88	0.844200	0.649500	0.318600
C981	C98	0.743200	0.449000	0.165800
H891	H89	0.750400	0.418800	0.083900
H901	H90	0.695900	0.470200	0.134100
C991	C99	0.741800	0.410900	0.303400
H911	H91	0.789500	0.390400	0.334900
H921	H92	0.734900	0.441500	0.384800
C1001	C100	0.581200	0.296100	0.157500
H931	H93	0.546100	0.290400	0.068500
C1011	C101	0.630700	0.347500	0.161000
H941	H94	0.628400	0.375800	0.076300
C1021	C102	0.684200	0.356800	0.292700
C1031	C103	0.682800	0.315300	0.414100
H951	H95	0.716600	0.320800	0.505500
C1041	C104	0.631200	0.264900	0.401900
H961	H96	0.631300	0.237100	0.486400
Zn31	Zn3	0.500000	0.175940	0.250000
Zn41	Zn4	0.000000	0.675940	0.250000
N271	N27	0.500000	0.123800	0.750000
N281	N28	0.000000	0.623800	0.750000
