data_UQUHAQ_clean_PM
_symmetry_space_group_name_H-M	'P1'
_cell_length_a	7.007700
_cell_length_b	7.816900
_cell_length_c	15.658600
_cell_angle_alpha	98.971000
_cell_angle_beta	90.000000
_cell_angle_gamma	90.000000
_symmetry_Int_Tables_number 1

loop_
_symmetry_equiv_pos_as_xyz
'x,y,z'

loop_
_atom_site_label
_atom_site_type_symbol
_atom_site_fract_x
_atom_site_fract_y
_atom_site_fract_z
Ni11	Ni1	0.743430	0.699950	0.350650
Ni21	Ni2	0.243430	0.300050	0.149350
Ni31	Ni3	0.256570	0.300050	0.649350
Ni41	Ni4	0.756570	0.699950	0.850650
H11	H1	0.925300	0.783100	0.534600
H21	H2	0.907500	0.354800	0.370600
H31	H3	0.697300	0.082700	0.399900
H41	H4	0.477600	0.715300	0.510900
H51	H5	0.865300	0.652100	0.162500
H61	H6	0.425300	0.216900	0.965400
H71	H7	0.407500	0.645200	0.129400
H81	H8	0.197300	0.917300	0.100100
H91	H9	0.977600	0.284700	0.989100
H101	H10	0.365300	0.347900	0.337500
H111	H11	0.074700	0.216900	0.465400
H121	H12	0.092500	0.645200	0.629400
H131	H13	0.302700	0.917300	0.600100
H141	H14	0.522400	0.284700	0.489100
H151	H15	0.134700	0.347900	0.837500
H161	H16	0.574700	0.783100	0.034600
H171	H17	0.592500	0.354800	0.870600
H181	H18	0.802700	0.082700	0.899900
H191	H19	0.022400	0.715300	0.010900
H201	H20	0.634700	0.652100	0.662500
C11	C1	0.954700	0.666300	0.519160
C21	C2	0.944200	0.416900	0.423580
C31	C3	0.616900	0.046300	0.440760
C41	C4	0.488800	0.831600	0.505500
C51	C5	0.925400	0.563600	0.185550
C61	C6	0.454700	0.333700	0.980840
C71	C7	0.444200	0.583100	0.076420
C81	C8	0.116900	0.953700	0.059240
C91	C9	0.988800	0.168400	0.994500
C101	C10	0.425400	0.436400	0.314450
C111	C11	0.045300	0.333700	0.480840
C121	C12	0.055800	0.583100	0.576420
C131	C13	0.383100	0.953700	0.559240
C141	C14	0.511200	0.168400	0.494500
C151	C15	0.074600	0.436400	0.814450
C161	C16	0.545300	0.666300	0.019160
C171	C17	0.555800	0.416900	0.923580
C181	C18	0.883100	0.046300	0.940760
C191	C19	0.011200	0.831600	0.005500
C201	C20	0.574600	0.563600	0.685550
N11	N1	0.898310	0.583410	0.442440
N21	N2	0.606360	0.877710	0.446060
N31	N3	0.398310	0.416590	0.057560
N41	N4	0.106360	0.122290	0.053940
N51	N5	0.101690	0.416590	0.557560
N61	N6	0.393640	0.122290	0.553940
N71	N7	0.601690	0.583410	0.942440
N81	N8	0.893640	0.877710	0.946060
O11	O1	0.881820	0.533630	0.257870
O21	O2	0.037040	0.480080	0.132440
O31	O3	0.381820	0.466370	0.242130
O41	O4	0.537040	0.519920	0.367560
O51	O5	0.118180	0.466370	0.742130
O61	O6	0.962960	0.519920	0.867560
O71	O7	0.618180	0.533630	0.757870
O81	O8	0.462960	0.480080	0.632440
