data_UQULAU_clean_PM
_symmetry_space_group_name_H-M	'P1'
_cell_length_a	12.020100
_cell_length_b	12.938300
_cell_length_c	20.746300
_cell_angle_alpha	90.000000
_cell_angle_beta	90.000000
_cell_angle_gamma	90.162100
_symmetry_Int_Tables_number 1

loop_
_symmetry_equiv_pos_as_xyz
'x,y,z'

loop_
_atom_site_label
_atom_site_type_symbol
_atom_site_fract_x
_atom_site_fract_y
_atom_site_fract_z
Co11	Co1	0.306750	0.117590	0.826640
Co21	Co2	0.165420	0.114700	0.673840
Co31	Co3	0.806750	0.617590	0.173360
Co41	Co4	0.665420	0.614700	0.326160
H11	H1	0.195500	0.976300	0.751400
H21	H2	0.303900	0.972900	0.745200
H31	H3	0.290400	0.651100	0.674400
H41	H4	0.699900	0.255200	0.880600
H51	H5	0.297500	0.463000	0.722000
H61	H6	0.270700	0.421800	0.652500
H71	H7	0.410500	0.309000	0.594600
H81	H8	0.523300	0.281200	0.628400
H91	H9	0.564700	0.346100	0.740100
H101	H10	0.477800	0.415400	0.776400
H111	H11	0.375700	0.491000	0.558000
H121	H12	0.467600	0.576200	0.567900
H131	H13	0.553200	0.414800	0.552500
H141	H14	0.650200	0.528900	0.622000
H151	H15	0.668300	0.414800	0.645900
H161	H16	0.620400	0.521900	0.733900
H171	H17	0.443200	0.596200	0.738400
H181	H18	0.509600	0.641200	0.679300
H191	H19	0.130000	0.416200	0.851800
H201	H20	0.094500	0.336200	0.905100
H211	H21	0.030000	0.418200	0.744200
H221	H22	0.930400	0.341500	0.732000
H231	H23	0.936600	0.213800	0.884500
H241	H24	0.873500	0.215500	0.818300
H251	H25	0.911500	0.358900	0.962600
H261	H26	0.834000	0.452300	0.944900
H271	H27	0.020500	0.500200	0.930600
H281	H28	0.006700	0.563700	0.824200
H291	H29	0.892800	0.579000	0.860100
H301	H30	0.859700	0.507800	0.758100
H311	H31	0.750000	0.364200	0.790000
H321	H32	0.733600	0.455400	0.839100
H331	H33	0.539600	0.193700	0.025300
H341	H34	0.434200	0.097200	0.956600
H351	H35	0.339000	0.343500	0.864200
H361	H36	0.444900	0.446300	0.928600
H371	H37	0.831700	0.236200	0.545000
H381	H38	0.929800	0.136600	0.614000
H391	H39	0.202000	0.282800	0.572700
H401	H40	0.110200	0.389100	0.503000
H411	H41	0.526100	0.537900	0.997700
H421	H42	0.661000	0.283800	0.072300
H431	H43	0.639000	0.633800	0.062700
H441	H44	0.767900	0.386400	0.136900
H451	H45	0.749600	0.399900	0.525500
H461	H46	0.654700	0.510300	0.460000
H471	H47	0.911300	0.544500	0.348800
H481	H48	0.013200	0.431200	0.409000
H491	H49	0.695500	0.476300	0.248600
H501	H50	0.803900	0.472900	0.254800
H511	H51	0.790400	0.151100	0.325600
H521	H52	0.199900	0.755200	0.119400
H531	H53	0.797500	0.963000	0.278000
H541	H54	0.770700	0.921800	0.347500
H551	H55	0.910500	0.809000	0.405400
H561	H56	0.023300	0.781200	0.371600
H571	H57	0.064700	0.846100	0.259900
H581	H58	0.977800	0.915400	0.223600
H591	H59	0.875700	0.991000	0.442000
H601	H60	0.967600	0.076200	0.432100
H611	H61	0.053200	0.914800	0.447500
H621	H62	0.150200	0.028900	0.378000
H631	H63	0.168300	0.914800	0.354100
H641	H64	0.120400	0.021900	0.266100
H651	H65	0.943200	0.096200	0.261600
H661	H66	0.009600	0.141200	0.320700
H671	H67	0.630000	0.916200	0.148200
H681	H68	0.594500	0.836200	0.094900
H691	H69	0.530000	0.918200	0.255800
H701	H70	0.430400	0.841500	0.268000
H711	H71	0.436600	0.713800	0.115500
H721	H72	0.373500	0.715500	0.181700
H731	H73	0.411500	0.858900	0.037400
H741	H74	0.334000	0.952300	0.055100
H751	H75	0.520500	0.000200	0.069400
H761	H76	0.506700	0.063700	0.175800
H771	H77	0.392800	0.079000	0.139900
H781	H78	0.359700	0.007800	0.241900
H791	H79	0.250000	0.864200	0.210000
H801	H80	0.233600	0.955400	0.160900
H811	H81	0.039600	0.693700	0.974700
H821	H82	0.934200	0.597200	0.043400
H831	H83	0.839000	0.843500	0.135800
H841	H84	0.944900	0.946300	0.071400
H851	H85	0.331700	0.736200	0.455000
H861	H86	0.429800	0.636600	0.386000
H871	H87	0.702000	0.782800	0.427300
H881	H88	0.610200	0.889100	0.497000
H891	H89	0.026100	0.037900	0.002300
H901	H90	0.161000	0.783800	0.927700
H911	H91	0.139000	0.133800	0.937300
H921	H92	0.267900	0.886400	0.863100
H931	H93	0.249600	0.899900	0.474500
H941	H94	0.154700	0.010300	0.540000
H951	H95	0.411300	0.044500	0.651200
H961	H96	0.513200	0.931200	0.591000
C11	C1	0.415900	0.359100	0.689480
C21	C2	0.329900	0.445600	0.680600
C31	C3	0.467600	0.334700	0.623520
C41	C4	0.508600	0.399100	0.734460
C51	C5	0.384500	0.541500	0.651500
C61	C6	0.433900	0.515000	0.586740
C71	C7	0.521100	0.431500	0.594610
C81	C8	0.613400	0.468900	0.640230
C91	C9	0.561900	0.496500	0.705000
C101	C10	0.475300	0.579200	0.696800
C111	C11	0.358900	0.260700	0.713360
C121	C12	0.010000	0.313100	0.818850
C131	C13	0.067100	0.379900	0.870580
C141	C14	0.967800	0.382900	0.764430
C151	C15	0.910500	0.258300	0.850090
C161	C16	0.828500	0.336700	0.877220
C171	C17	0.886000	0.402300	0.927470
C181	C18	0.983800	0.458000	0.897600
C191	C19	0.943900	0.527800	0.843200
C201	C20	0.886200	0.462700	0.792740
C211	C21	0.786800	0.405800	0.822530
C221	C22	0.090400	0.232000	0.792770
C231	C23	0.508300	0.333000	0.984570
C241	C24	0.501000	0.226000	0.992100
C251	C25	0.437000	0.168400	0.950600
C261	C26	0.381700	0.312800	0.896260
C271	C27	0.444700	0.375200	0.935220
C281	C28	0.957400	0.329100	0.517500
C291	C29	0.907200	0.248900	0.550680
C301	C30	0.967000	0.188300	0.591580
C311	C31	0.125700	0.274000	0.567550
C321	C32	0.070900	0.338900	0.525670
C331	C33	0.575300	0.504800	0.025410
C341	C34	0.654200	0.355200	0.069460
C351	C35	0.643300	0.562100	0.065110
C361	C36	0.719000	0.417800	0.108230
C371	C37	0.580100	0.397600	0.026740
C381	C38	0.893800	0.400400	0.475390
C391	C39	0.784500	0.427200	0.489250
C401	C40	0.727900	0.494000	0.449650
C411	C41	0.877700	0.513500	0.384280
C421	C42	0.940400	0.446100	0.420780
C431	C43	0.915900	0.859100	0.310520
C441	C44	0.829900	0.945600	0.319400
C451	C45	0.967600	0.834700	0.376480
C461	C46	0.008600	0.899100	0.265540
C471	C47	0.884500	0.041500	0.348500
C481	C48	0.933900	0.015000	0.413260
C491	C49	0.021100	0.931500	0.405390
C501	C50	0.113400	0.968900	0.359770
C511	C51	0.061900	0.996500	0.295000
C521	C52	0.975300	0.079200	0.303200
C531	C53	0.858900	0.760700	0.286640
C541	C54	0.510000	0.813100	0.181150
C551	C55	0.567100	0.879900	0.129420
C561	C56	0.467800	0.882900	0.235570
C571	C57	0.410500	0.758300	0.149910
C581	C58	0.328500	0.836700	0.122780
C591	C59	0.386000	0.902300	0.072530
C601	C60	0.483800	0.958000	0.102400
C611	C61	0.443900	0.027800	0.156800
C621	C62	0.386200	0.962700	0.207260
C631	C63	0.286800	0.905800	0.177470
C641	C64	0.590400	0.732000	0.207230
C651	C65	0.008300	0.833000	0.015430
C661	C66	0.001000	0.726000	0.007900
C671	C67	0.937000	0.668400	0.049400
C681	C68	0.881700	0.812800	0.103740
C691	C69	0.944700	0.875200	0.064780
C701	C70	0.457400	0.829100	0.482500
C711	C71	0.407200	0.748900	0.449320
C721	C72	0.467000	0.688300	0.408420
C731	C73	0.625700	0.774000	0.432450
C741	C74	0.570900	0.838900	0.474330
C751	C75	0.075300	0.004800	0.974590
C761	C76	0.154200	0.855200	0.930540
C771	C77	0.143300	0.062100	0.934890
C781	C78	0.219000	0.917800	0.891770
C791	C79	0.080100	0.897600	0.973260
C801	C80	0.393800	0.900400	0.524610
C811	C81	0.284500	0.927200	0.510750
C821	C82	0.227900	0.994000	0.550350
C831	C83	0.377700	0.013500	0.615720
C841	C84	0.440400	0.946100	0.579220
N11	N1	0.378650	0.209150	0.902160
N21	N2	0.075710	0.199210	0.601130
N31	N3	0.715110	0.521110	0.106830
N41	N4	0.772790	0.536790	0.396710
N51	N5	0.878650	0.709150	0.097840
N61	N6	0.575710	0.699210	0.398870
N71	N7	0.215110	0.021110	0.893170
N81	N8	0.272790	0.036790	0.603290
O11	O1	0.245750	0.022650	0.748540
O21	O2	0.276450	0.231850	0.680890
O31	O3	0.396200	0.214500	0.761860
O41	O4	0.301500	0.619300	0.640860
O51	O5	0.180330	0.219830	0.822680
O61	O6	0.060250	0.179050	0.744590
O71	O7	0.737200	0.285400	0.907830
O81	O8	0.745750	0.522650	0.251460
O91	O9	0.776450	0.731850	0.319110
O101	O10	0.896200	0.714500	0.238140
O111	O11	0.801500	0.119300	0.359140
O121	O12	0.680330	0.719830	0.177320
O131	O13	0.560250	0.679050	0.255410
O141	O14	0.237200	0.785400	0.092170
