data_URENEM_clean_PM
_symmetry_space_group_name_H-M	'P1'
_cell_length_a	14.261000
_cell_length_b	16.664000
_cell_length_c	26.160000
_cell_angle_alpha	90.000000
_cell_angle_beta	90.000000
_cell_angle_gamma	90.000000
_symmetry_Int_Tables_number 1

loop_
_symmetry_equiv_pos_as_xyz
'x,y,z'

loop_
_atom_site_label
_atom_site_type_symbol
_atom_site_fract_x
_atom_site_fract_y
_atom_site_fract_z
Zn11	Zn1	0.775240	0.076620	0.891300
Zn21	Zn2	0.936250	0.936110	0.906480
O11	O1	0.866410	0.136960	0.939740
O21	O2	0.957800	0.029080	0.949960
O31	O3	0.174990	0.343070	0.098640
O41	O4	0.246300	0.231590	0.124270
O51	O5	0.033340	0.868910	0.937120
O61	O6	0.973930	0.764130	0.895960
O71	O7	0.314900	0.606550	0.077810
O81	O8	0.230920	0.500090	0.051880
O91	O9	0.544970	0.038770	0.335360
O101	O10	0.626720	0.923950	0.335010
N11	N1	0.276680	0.860940	0.069510
N21	N2	0.182600	0.971130	0.040240
N31	N3	0.290670	0.992060	0.108580
N41	N4	0.382990	0.882110	0.132920
H11	H1	0.402000	0.835900	0.122600
N51	N5	0.164300	0.849240	0.004350
H21	H2	0.134400	0.877600	0.982200
N61	N6	0.199840	0.095930	0.079250
H31	H3	0.232600	0.123300	0.100600
C11	C1	0.314460	0.914830	0.103840
C21	C2	0.211100	0.893340	0.040070
C31	C3	0.224200	0.016330	0.075270
C41	C4	0.130400	0.138810	0.053970
C51	C5	0.069600	0.102850	0.019500
H41	H4	0.076100	0.048500	0.012300
C61	C6	0.999300	0.146490	0.995490
C71	C7	0.988400	0.227740	0.004800
H51	H5	0.941000	0.257000	0.989000
C81	C8	0.051300	0.264580	0.038800
H61	H6	0.046200	0.319400	0.044800
C91	C9	0.120500	0.221480	0.063680
C101	C10	0.935600	0.101380	0.957650
C111	C11	0.185900	0.268510	0.097890
C121	C12	0.155700	0.766700	0.996970
C131	C13	0.089200	0.738030	0.959980
C141	C14	0.080300	0.656950	0.953110
H71	H7	0.039700	0.638600	0.927900
C151	C15	0.129500	0.600180	0.982280
H81	H8	0.119800	0.545400	0.977800
C161	C16	0.194200	0.629190	0.018580
C171	C17	0.208200	0.711890	0.024340
H91	H9	0.253700	0.730200	0.047000
C181	C18	0.027200	0.792010	0.927850
C191	C19	0.249900	0.573940	0.051180
C201	C20	0.428200	0.910140	0.176650
C211	C21	0.501300	0.863100	0.195930
H101	H10	0.519500	0.817200	0.178300
C221	C22	0.546400	0.883100	0.240060
H111	H11	0.593900	0.850100	0.252400
C231	C23	0.522600	0.952050	0.266920
C241	C24	0.449900	0.998100	0.247840
H121	H12	0.431400	0.043700	0.265800
C251	C25	0.403400	0.978600	0.202740
H131	H13	0.356000	0.011600	0.190300
C261	C26	0.567800	0.972610	0.315880
Zn31	Zn3	0.724760	0.923380	0.391290
Zn41	Zn4	0.563750	0.063890	0.406480
O111	O11	0.633590	0.863040	0.439740
O121	O12	0.542200	0.970920	0.449960
O131	O13	0.325010	0.656930	0.598640
O141	O14	0.253700	0.768410	0.624270
O151	O15	0.466660	0.131090	0.437120
O161	O16	0.526070	0.235870	0.395960
O171	O17	0.185100	0.393450	0.577810
O181	O18	0.269080	0.499910	0.551880
O191	O19	0.955030	0.961230	0.835360
O201	O20	0.873280	0.076050	0.835010
N71	N7	0.223320	0.139060	0.569510
N81	N8	0.317400	0.028870	0.540240
N91	N9	0.209330	0.007940	0.608580
N101	N10	0.117010	0.117890	0.632920
H141	H14	0.098000	0.164100	0.622600
N111	N11	0.335700	0.150760	0.504350
H151	H15	0.365600	0.122400	0.482200
N121	N12	0.300160	0.904070	0.579250
H161	H16	0.267400	0.876700	0.600600
C271	C27	0.185540	0.085170	0.603840
C281	C28	0.288900	0.106660	0.540070
C291	C29	0.275800	0.983670	0.575270
C301	C30	0.369600	0.861190	0.553970
C311	C31	0.430400	0.897150	0.519500
H171	H17	0.423900	0.951500	0.512300
C321	C32	0.500700	0.853510	0.495490
C331	C33	0.511600	0.772260	0.504800
H181	H18	0.559000	0.743000	0.489000
C341	C34	0.448700	0.735420	0.538800
H191	H19	0.453800	0.680600	0.544800
C351	C35	0.379500	0.778520	0.563680
C361	C36	0.564400	0.898620	0.457650
C371	C37	0.314100	0.731490	0.597890
C381	C38	0.344300	0.233300	0.496970
C391	C39	0.410800	0.261970	0.459980
C401	C40	0.419700	0.343050	0.453110
H201	H20	0.460300	0.361400	0.427900
C411	C41	0.370500	0.399820	0.482280
H211	H21	0.380200	0.454600	0.477800
C421	C42	0.305800	0.370810	0.518580
C431	C43	0.291800	0.288110	0.524340
H221	H22	0.246300	0.269800	0.547000
C441	C44	0.472800	0.207990	0.427850
C451	C45	0.250100	0.426060	0.551180
C461	C46	0.071800	0.089860	0.676650
C471	C47	0.998700	0.136900	0.695930
H231	H23	0.980500	0.182800	0.678300
C481	C48	0.953600	0.116900	0.740060
H241	H24	0.906100	0.149900	0.752400
C491	C49	0.977400	0.047950	0.766920
C501	C50	0.050100	0.001900	0.747840
H251	H25	0.068600	0.956300	0.765800
C511	C51	0.096600	0.021400	0.702740
H261	H26	0.144000	0.988400	0.690300
C521	C52	0.932200	0.027390	0.815880
Zn51	Zn5	0.224760	0.576620	0.608710
Zn61	Zn6	0.063750	0.436110	0.593520
O211	O21	0.133590	0.636960	0.560260
O221	O22	0.042200	0.529080	0.550040
O231	O23	0.825010	0.843070	0.401360
O241	O24	0.753700	0.731590	0.375730
O251	O25	0.966660	0.368910	0.562880
O261	O26	0.026070	0.264130	0.604040
O271	O27	0.685100	0.106550	0.422190
O281	O28	0.769080	0.000090	0.448120
O291	O29	0.455030	0.538770	0.164640
O301	O30	0.373280	0.423950	0.164990
N131	N13	0.723320	0.360940	0.430490
N141	N14	0.817400	0.471130	0.459760
N151	N15	0.709330	0.492060	0.391420
N161	N16	0.617010	0.382110	0.367080
H271	H27	0.598000	0.335900	0.377400
N171	N17	0.835700	0.349240	0.495650
H281	H28	0.865600	0.377600	0.517800
N181	N18	0.800160	0.595930	0.420750
H291	H29	0.767400	0.623300	0.399400
C531	C53	0.685540	0.414830	0.396160
C541	C54	0.788900	0.393340	0.459930
C551	C55	0.775800	0.516330	0.424730
C561	C56	0.869600	0.638810	0.446030
C571	C57	0.930400	0.602850	0.480500
H301	H30	0.923900	0.548500	0.487700
C581	C58	0.000700	0.646490	0.504510
C591	C59	0.011600	0.727740	0.495200
H311	H31	0.059000	0.757000	0.511000
C601	C60	0.948700	0.764580	0.461200
H321	H32	0.953800	0.819400	0.455200
C611	C61	0.879500	0.721480	0.436320
C621	C62	0.064400	0.601380	0.542350
C631	C63	0.814100	0.768510	0.402110
C641	C64	0.844300	0.266700	0.503030
C651	C65	0.910800	0.238030	0.540020
C661	C66	0.919700	0.156950	0.546890
H331	H33	0.960300	0.138600	0.572100
C671	C67	0.870500	0.100180	0.517720
H341	H34	0.880200	0.045400	0.522200
C681	C68	0.805800	0.129190	0.481420
C691	C69	0.791800	0.211890	0.475660
H351	H35	0.746300	0.230200	0.453000
C701	C70	0.972800	0.292010	0.572150
C711	C71	0.750100	0.073940	0.448820
C721	C72	0.571800	0.410140	0.323350
C731	C73	0.498700	0.363100	0.304070
H361	H36	0.480500	0.317200	0.321700
C741	C74	0.453600	0.383100	0.259940
H371	H37	0.406100	0.350100	0.247600
C751	C75	0.477400	0.452050	0.233080
C761	C76	0.550100	0.498100	0.252160
H381	H38	0.568600	0.543700	0.234200
C771	C77	0.596600	0.478600	0.297260
H391	H39	0.644000	0.511600	0.309700
C781	C78	0.432200	0.472610	0.184120
Zn71	Zn7	0.275240	0.423380	0.108710
Zn81	Zn8	0.436250	0.563890	0.093520
O311	O31	0.366410	0.363040	0.060260
O321	O32	0.457800	0.470920	0.050040
O331	O33	0.674990	0.156930	0.901360
O341	O34	0.746300	0.268410	0.875730
O351	O35	0.533340	0.631090	0.062880
O361	O36	0.473930	0.735870	0.104040
O371	O37	0.814900	0.893450	0.922190
O381	O38	0.730920	0.999910	0.948120
O391	O39	0.044970	0.461230	0.664640
O401	O40	0.126720	0.576050	0.664990
N191	N19	0.776680	0.639060	0.930490
N201	N20	0.682600	0.528870	0.959760
N211	N21	0.790670	0.507940	0.891420
N221	N22	0.882990	0.617890	0.867080
H401	H40	0.902000	0.664100	0.877400
N231	N23	0.664300	0.650760	0.995650
H411	H41	0.634400	0.622400	0.017800
N241	N24	0.699840	0.404070	0.920750
H421	H42	0.732600	0.376700	0.899400
C791	C79	0.814460	0.585170	0.896160
C801	C80	0.711100	0.606660	0.959930
C811	C81	0.724200	0.483670	0.924730
C821	C82	0.630400	0.361190	0.946030
C831	C83	0.569600	0.397150	0.980500
H431	H43	0.576100	0.451500	0.987700
C841	C84	0.499300	0.353510	0.004510
C851	C85	0.488400	0.272260	0.995200
H441	H44	0.441000	0.243000	0.011000
C861	C86	0.551300	0.235420	0.961200
H451	H45	0.546200	0.180600	0.955200
C871	C87	0.620500	0.278520	0.936320
C881	C88	0.435600	0.398620	0.042350
C891	C89	0.685900	0.231490	0.902110
C901	C90	0.655700	0.733300	0.003030
C911	C91	0.589200	0.761970	0.040020
C921	C92	0.580300	0.843050	0.046890
H461	H46	0.539700	0.861400	0.072100
C931	C93	0.629500	0.899820	0.017720
H471	H47	0.619800	0.954600	0.022200
C941	C94	0.694200	0.870810	0.981420
C951	C95	0.708200	0.788110	0.975660
H481	H48	0.753700	0.769800	0.953000
C961	C96	0.527200	0.707990	0.072150
C971	C97	0.749900	0.926060	0.948820
C981	C98	0.928200	0.589860	0.823350
C991	C99	0.001300	0.636900	0.804070
H491	H49	0.019500	0.682800	0.821700
C1001	C100	0.046400	0.616900	0.759940
H501	H50	0.093900	0.649900	0.747600
C1011	C101	0.022600	0.547950	0.733080
C1021	C102	0.949900	0.501900	0.752160
H511	H51	0.931400	0.456300	0.734200
C1031	C103	0.903400	0.521400	0.797260
H521	H52	0.856000	0.488400	0.809700
C1041	C104	0.067800	0.527390	0.684120
