data_UREVIY_clean_PM
_symmetry_space_group_name_H-M	'P1'
_cell_length_a	8.872300
_cell_length_b	10.715200
_cell_length_c	18.920000
_cell_angle_alpha	75.496000
_cell_angle_beta	83.797000
_cell_angle_gamma	69.336000
_symmetry_Int_Tables_number 1

loop_
_symmetry_equiv_pos_as_xyz
'x,y,z'

loop_
_atom_site_label
_atom_site_type_symbol
_atom_site_fract_x
_atom_site_fract_y
_atom_site_fract_z
Pr11	Pr1	0.498160	0.588580	0.213000
O11	O1	0.280200	0.603500	0.310430
O21	O2	0.202400	0.607900	0.167900
O31	O3	0.403400	0.571900	0.088100
O41	O4	0.434800	0.371800	0.244300
O51	O5	0.650600	0.442500	0.318920
O61	O6	0.736600	0.458400	0.159570
O71	O7	0.609500	0.731100	0.258800
Pr21	Pr2	0.104000	0.468080	0.276280
C11	C1	0.426700	0.256200	0.245900
C21	C2	0.758600	0.406300	0.364600
C31	C3	0.885000	0.416900	0.143800
O81	O8	0.070200	0.591000	0.380700
O91	O9	0.295200	0.238700	0.246100
O101	O10	0.902400	0.397600	0.351100
O111	O11	0.994800	0.409700	0.182110
O121	O12	0.876000	0.673700	0.243500
C41	C4	0.581300	0.135600	0.249800
C51	C5	0.710000	0.368800	0.443600
C61	C6	0.931100	0.375600	0.072000
C71	C7	0.727900	0.152700	0.253900
C81	C8	0.581900	0.006400	0.249600
C91	C9	0.578800	0.324000	0.463000
C101	C10	0.787100	0.383800	0.498700
C111	C11	0.813200	0.400900	0.022000
C121	C12	0.092000	0.319400	0.052600
H11	H1	0.727400	0.239300	0.254600
N11	N1	0.870500	0.050700	0.257000
H21	H2	0.485500	0.991400	0.247700
C131	C13	0.727000	0.899600	0.252300
N21	N2	0.526000	0.291100	0.530700
H31	H3	0.524300	0.316800	0.425700
C141	C14	0.730100	0.356500	0.570400
H41	H4	0.876600	0.411900	0.488200
C151	C15	0.861500	0.370300	0.954300
H51	H5	0.704500	0.437500	0.033800
N31	N3	0.139700	0.289100	0.986900
H61	H6	0.170100	0.301900	0.086200
C161	C16	0.868300	0.927900	0.255300
C171	C17	0.738400	0.756200	0.252000
C181	C18	0.601500	0.307300	0.583200
C191	C19	0.799100	0.386700	0.629700
C201	C20	0.023900	0.315700	0.939600
C211	C21	0.743500	0.400700	0.896400
H71	H7	0.966200	0.856800	0.256200
H81	H8	0.566200	0.284400	0.631200
H91	H9	0.055400	0.295900	0.894000
Pr31	Pr3	0.501840	0.411420	0.787000
O131	O13	0.719800	0.396500	0.689570
O141	O14	0.797600	0.392100	0.832100
O151	O15	0.596600	0.428100	0.911900
O161	O16	0.565200	0.628200	0.755700
O171	O17	0.349400	0.557500	0.681080
O181	O18	0.263400	0.541600	0.840430
O191	O19	0.390500	0.268900	0.741200
Pr41	Pr4	0.896000	0.531920	0.723720
C221	C22	0.573300	0.743800	0.754100
C231	C23	0.241400	0.593700	0.635400
C241	C24	0.115000	0.583100	0.856200
O201	O20	0.929800	0.409000	0.619300
O211	O21	0.704800	0.761300	0.753900
O221	O22	0.097600	0.602400	0.648900
O231	O23	0.005200	0.590300	0.817890
O241	O24	0.124000	0.326300	0.756500
C251	C25	0.418700	0.864400	0.750200
C261	C26	0.290000	0.631200	0.556400
C271	C27	0.068900	0.624400	0.928000
C281	C28	0.272100	0.847300	0.746100
C291	C29	0.418100	0.993600	0.750400
C301	C30	0.421200	0.676000	0.537000
C311	C31	0.212900	0.616200	0.501300
C321	C32	0.186800	0.599100	0.978000
C331	C33	0.908000	0.680600	0.947400
H101	H10	0.272600	0.760700	0.745400
N41	N4	0.129500	0.949300	0.743000
H111	H11	0.514500	0.008600	0.752300
C341	C34	0.273000	0.100400	0.747700
N51	N5	0.474000	0.708900	0.469300
H121	H12	0.475700	0.683200	0.574300
C351	C35	0.269900	0.643500	0.429600
H131	H13	0.123400	0.588100	0.511800
C361	C36	0.138500	0.629700	0.045700
H141	H14	0.295500	0.562500	0.966200
N61	N6	0.860300	0.710900	0.013100
H151	H15	0.829900	0.698100	0.913800
C371	C37	0.131700	0.072100	0.744700
C381	C38	0.261600	0.243800	0.748000
C391	C39	0.398500	0.692700	0.416800
C401	C40	0.200900	0.613300	0.370300
C411	C41	0.976100	0.684300	0.060400
C421	C42	0.256500	0.599300	0.103600
H161	H16	0.033800	0.143200	0.743800
H171	H17	0.433800	0.715600	0.368800
H181	H18	0.944600	0.704100	0.106000
