data_UREVOE_clean_PM
_symmetry_space_group_name_H-M	'P1'
_cell_length_a	8.847500
_cell_length_b	10.716000
_cell_length_c	18.895000
_cell_angle_alpha	75.521000
_cell_angle_beta	83.777000
_cell_angle_gamma	69.306000
_symmetry_Int_Tables_number 1

loop_
_symmetry_equiv_pos_as_xyz
'x,y,z'

loop_
_atom_site_label
_atom_site_type_symbol
_atom_site_fract_x
_atom_site_fract_y
_atom_site_fract_z
Sm11	Sm1	0.002200	0.412000	0.286950
Sm21	Sm2	0.396550	0.532030	0.223750
C11	C1	0.526000	0.314200	0.439500
H11	H1	0.557400	0.292400	0.394300
C21	C2	0.361400	0.371400	0.454400
C31	C3	0.312000	0.403400	0.521400
H21	H2	0.202900	0.441400	0.532900
C41	C4	0.431600	0.377000	0.572100
C51	C5	0.591500	0.319200	0.552800
H31	H3	0.669400	0.299900	0.587000
C61	C6	0.244300	0.400100	0.396100
C71	C7	0.385700	0.416300	0.643900
C81	C8	0.900500	0.691400	0.916200
H41	H4	0.936800	0.713500	0.868200
C91	C9	0.769500	0.643100	0.929700
C101	C10	0.710500	0.615400	0.001000
H51	H5	0.620500	0.587700	0.011200
C111	C11	0.789300	0.630100	0.056900
C121	C12	0.922100	0.676300	0.037100
H61	H6	0.975600	0.685600	0.074100
C131	C13	0.744800	0.592200	0.136000
C141	C14	0.700800	0.612000	0.870200
C151	C15	0.632100	0.072300	0.243900
H71	H7	0.534200	0.144000	0.242000
C161	C16	0.772800	0.847600	0.245700
H81	H8	0.773300	0.761000	0.244900
C171	C17	0.918200	0.864400	0.249800
C181	C18	0.918100	0.994200	0.248900
H91	H9	0.015200	0.009500	0.249200
C191	C19	0.772500	0.101100	0.247500
C201	C20	0.762900	0.244100	0.247900
C211	C21	0.072400	0.742300	0.254000
N11	N1	0.641800	0.288700	0.487000
N21	N2	0.975100	0.707100	0.969300
N31	N3	0.627700	0.951100	0.242900
O11	O1	0.094600	0.429300	0.411300
O21	O2	0.296800	0.393700	0.331500
O31	O3	0.234100	0.460500	0.660100
O41	O4	0.494700	0.410400	0.682600
O51	O5	0.851500	0.555700	0.180500
O61	O6	0.597900	0.602000	0.150400
O71	O7	0.567600	0.589300	0.881200
O81	O8	0.780200	0.601600	0.810500
O91	O9	0.624200	0.326900	0.256500
O101	O10	0.892500	0.267800	0.241300
O111	O11	0.204300	0.759200	0.253500
O121	O12	0.062700	0.629200	0.255600
Sm31	Sm3	0.997800	0.588000	0.713050
Sm41	Sm4	0.603450	0.467970	0.776250
C221	C22	0.474000	0.685800	0.560500
H101	H10	0.442600	0.707600	0.605700
C231	C23	0.638600	0.628600	0.545600
C241	C24	0.688000	0.596600	0.478600
H111	H11	0.797100	0.558600	0.467100
C251	C25	0.568400	0.623000	0.427900
C261	C26	0.408500	0.680800	0.447200
H121	H12	0.330600	0.700100	0.413000
C271	C27	0.755700	0.599900	0.603900
C281	C28	0.614300	0.583700	0.356100
C291	C29	0.099500	0.308600	0.083800
H131	H13	0.063200	0.286500	0.131800
C301	C30	0.230500	0.356900	0.070300
C311	C31	0.289500	0.384600	0.999000
H141	H14	0.379500	0.412300	0.988800
C321	C32	0.210700	0.369900	0.943100
C331	C33	0.077900	0.323700	0.962900
H151	H15	0.024400	0.314400	0.925900
C341	C34	0.255200	0.407800	0.864000
C351	C35	0.299200	0.388000	0.129800
C361	C36	0.367900	0.927700	0.756100
H161	H16	0.465800	0.856000	0.758000
C371	C37	0.227200	0.152400	0.754300
H171	H17	0.226700	0.239000	0.755100
C381	C38	0.081800	0.135600	0.750200
C391	C39	0.081900	0.005800	0.751100
H181	H18	0.984800	0.990500	0.750800
C401	C40	0.227500	0.898900	0.752500
C411	C41	0.237100	0.755900	0.752100
C421	C42	0.927600	0.257700	0.746000
N41	N4	0.358200	0.711300	0.513000
N51	N5	0.024900	0.292900	0.030700
N61	N6	0.372300	0.048900	0.757100
O131	O13	0.905400	0.570700	0.588700
O141	O14	0.703200	0.606300	0.668500
O151	O15	0.765900	0.539500	0.339900
O161	O16	0.505300	0.589600	0.317400
O171	O17	0.148500	0.444300	0.819500
O181	O18	0.402100	0.398000	0.849600
O191	O19	0.432400	0.410700	0.118800
O201	O20	0.219800	0.398400	0.189500
O211	O21	0.375800	0.673100	0.743500
O221	O22	0.107500	0.732200	0.758700
O231	O23	0.795700	0.240800	0.746500
O241	O24	0.937300	0.370800	0.744400
