data_URUWIP_clean_PM
_symmetry_space_group_name_H-M	'P1'
_cell_length_a	32.040000
_cell_length_b	16.790000
_cell_length_c	10.770000
_cell_angle_alpha	90.000000
_cell_angle_beta	92.360000
_cell_angle_gamma	90.000000
_symmetry_Int_Tables_number 1

loop_
_symmetry_equiv_pos_as_xyz
'x,y,z'

loop_
_atom_site_label
_atom_site_type_symbol
_atom_site_fract_x
_atom_site_fract_y
_atom_site_fract_z
Cu11	Cu1	0.944560	0.445930	0.032400
N11	N1	0.922800	0.445700	0.197600
N21	N2	0.944500	0.485500	0.285100
N31	N3	0.923400	0.495000	0.387800
N41	N4	0.780400	0.343100	0.215000
N51	N5	0.779500	0.411100	0.455600
N61	N6	0.644400	0.313100	0.511200
N71	N7	0.644800	0.237100	0.279400
N81	N8	0.516400	0.164800	0.585500
N91	N9	0.496100	0.115800	0.502700
N101	N10	0.515300	0.108500	0.396800
C11	C1	0.884700	0.426300	0.244500
C21	C2	0.884800	0.459000	0.368200
C31	C3	0.850700	0.452600	0.441700
H11	H1	0.851300	0.473000	0.524000
C41	C4	0.815100	0.414500	0.388900
C51	C5	0.815800	0.380400	0.265900
C61	C6	0.849700	0.386700	0.189800
H21	H2	0.849300	0.366100	0.107700
C71	C7	0.747400	0.340300	0.281500
C81	C8	0.745400	0.380300	0.399300
C91	C9	0.706600	0.384200	0.476600
C101	C10	0.673400	0.324200	0.431700
C111	C11	0.673500	0.288200	0.315200
C121	C12	0.707700	0.303100	0.222500
C131	C13	0.690300	0.350600	0.111800
H31	H3	0.679800	0.401900	0.140400
H41	H4	0.667500	0.320800	0.070000
H51	H5	0.712600	0.359700	0.053500
C141	C14	0.719000	0.221700	0.162700
H61	H6	0.695100	0.202200	0.112000
H71	H7	0.726100	0.183100	0.228400
H81	H8	0.743000	0.228900	0.110200
C151	C15	0.613400	0.220500	0.360300
C161	C16	0.613300	0.259700	0.479500
C171	C17	0.581600	0.244300	0.562000
H91	H9	0.581700	0.268800	0.641400
C181	C18	0.550700	0.192800	0.524600
C191	C19	0.550300	0.155700	0.408800
C201	C20	0.581400	0.169300	0.321300
H101	H10	0.580400	0.145100	0.241500
C211	C21	0.711000	0.396000	0.600500
H111	H11	0.721500	0.450000	0.616700
H121	H12	0.730900	0.357100	0.636500
H131	H13	0.683900	0.389400	0.638100
Cu21	Cu2	0.444560	0.945930	0.032400
N111	N11	0.422800	0.945700	0.197600
N121	N12	0.444500	0.985500	0.285100
N131	N13	0.423400	0.995000	0.387800
N141	N14	0.280400	0.843100	0.215000
N151	N15	0.279500	0.911100	0.455600
N161	N16	0.144400	0.813100	0.511200
N171	N17	0.144800	0.737100	0.279400
N181	N18	0.016400	0.664800	0.585500
N191	N19	0.996100	0.615800	0.502700
N201	N20	0.015300	0.608500	0.396800
C221	C22	0.384700	0.926300	0.244500
C231	C23	0.384800	0.959000	0.368200
C241	C24	0.350700	0.952600	0.441700
H141	H14	0.351300	0.973000	0.524000
C251	C25	0.315100	0.914500	0.388900
C261	C26	0.315800	0.880400	0.265900
C271	C27	0.349700	0.886700	0.189800
H151	H15	0.349300	0.866100	0.107700
C281	C28	0.247400	0.840300	0.281500
C291	C29	0.245400	0.880300	0.399300
C301	C30	0.206600	0.884200	0.476600
C311	C31	0.173400	0.824200	0.431700
C321	C32	0.173500	0.788200	0.315200
C331	C33	0.207700	0.803100	0.222500
C341	C34	0.190300	0.850600	0.111800
H161	H16	0.179800	0.901900	0.140400
H171	H17	0.167500	0.820800	0.070000
H181	H18	0.212600	0.859700	0.053500
C351	C35	0.219000	0.721700	0.162700
H191	H19	0.195100	0.702200	0.112000
H201	H20	0.226100	0.683100	0.228400
H211	H21	0.243000	0.728900	0.110200
C361	C36	0.113400	0.720500	0.360300
C371	C37	0.113300	0.759700	0.479500
C381	C38	0.081600	0.744300	0.562000
H221	H22	0.081700	0.768800	0.641400
C391	C39	0.050700	0.692800	0.524600
C401	C40	0.050300	0.655700	0.408800
C411	C41	0.081400	0.669300	0.321300
H231	H23	0.080400	0.645100	0.241500
C421	C42	0.211000	0.896000	0.600500
H241	H24	0.221500	0.950000	0.616700
H251	H25	0.230900	0.857100	0.636500
H261	H26	0.183900	0.889400	0.638100
Cu31	Cu3	0.055440	0.445930	0.467600
N211	N21	0.077200	0.445700	0.302400
N221	N22	0.055500	0.485500	0.214900
N231	N23	0.076600	0.495000	0.112200
N241	N24	0.219600	0.343100	0.285000
N251	N25	0.220500	0.411100	0.044400
N261	N26	0.355600	0.313100	0.988800
N271	N27	0.355200	0.237100	0.220600
N281	N28	0.483600	0.164800	0.914500
N291	N29	0.503900	0.115800	0.997300
N301	N30	0.484700	0.108500	0.103200
C431	C43	0.115300	0.426300	0.255500
C441	C44	0.115200	0.459000	0.131800
C451	C45	0.149300	0.452600	0.058300
H271	H27	0.148700	0.473000	0.976000
C461	C46	0.184900	0.414500	0.111100
C471	C47	0.184200	0.380400	0.234100
C481	C48	0.150300	0.386700	0.310200
H281	H28	0.150700	0.366100	0.392300
C491	C49	0.252600	0.340300	0.218500
C501	C50	0.254600	0.380300	0.100700
C511	C51	0.293400	0.384200	0.023400
C521	C52	0.326600	0.324200	0.068300
C531	C53	0.326500	0.288200	0.184800
C541	C54	0.292300	0.303100	0.277500
C551	C55	0.309700	0.350600	0.388200
H291	H29	0.320200	0.401900	0.359600
H301	H30	0.332500	0.320800	0.430000
H311	H31	0.287400	0.359700	0.446500
C561	C56	0.281000	0.221700	0.337300
H321	H32	0.304900	0.202200	0.388000
H331	H33	0.273900	0.183100	0.271600
H341	H34	0.257000	0.228900	0.389800
C571	C57	0.386600	0.220500	0.139700
C581	C58	0.386700	0.259700	0.020500
C591	C59	0.418400	0.244300	0.938000
H351	H35	0.418300	0.268800	0.858600
C601	C60	0.449300	0.192800	0.975400
C611	C61	0.449700	0.155700	0.091200
C621	C62	0.418600	0.169300	0.178700
H361	H36	0.419600	0.145100	0.258500
C631	C63	0.289000	0.396000	0.899500
H371	H37	0.278500	0.450000	0.883300
H381	H38	0.269100	0.357100	0.863500
H391	H39	0.316100	0.389400	0.861900
Cu41	Cu4	0.555440	0.945930	0.467600
N311	N31	0.577200	0.945700	0.302400
N321	N32	0.555500	0.985500	0.214900
N331	N33	0.576600	0.995000	0.112200
N341	N34	0.719600	0.843100	0.285000
N351	N35	0.720500	0.911100	0.044400
N361	N36	0.855600	0.813100	0.988800
N371	N37	0.855200	0.737100	0.220600
N381	N38	0.983600	0.664800	0.914500
N391	N39	0.003900	0.615800	0.997300
N401	N40	0.984700	0.608500	0.103200
C641	C64	0.615300	0.926300	0.255500
C651	C65	0.615200	0.959000	0.131800
C661	C66	0.649300	0.952600	0.058300
H401	H40	0.648700	0.973000	0.976000
C671	C67	0.684900	0.914500	0.111100
C681	C68	0.684200	0.880400	0.234100
C691	C69	0.650300	0.886700	0.310200
H411	H41	0.650700	0.866100	0.392300
C701	C70	0.752600	0.840300	0.218500
C711	C71	0.754600	0.880300	0.100700
C721	C72	0.793400	0.884200	0.023400
C731	C73	0.826600	0.824200	0.068300
C741	C74	0.826500	0.788200	0.184800
C751	C75	0.792300	0.803100	0.277500
C761	C76	0.809700	0.850600	0.388200
H421	H42	0.820200	0.901900	0.359600
H431	H43	0.832500	0.820800	0.430000
H441	H44	0.787400	0.859700	0.446500
C771	C77	0.781000	0.721700	0.337300
H451	H45	0.804900	0.702200	0.388000
H461	H46	0.773900	0.683100	0.271600
H471	H47	0.757000	0.728900	0.389800
C781	C78	0.886600	0.720500	0.139700
C791	C79	0.886700	0.759700	0.020500
C801	C80	0.918400	0.744300	0.938000
H481	H48	0.918300	0.768800	0.858600
C811	C81	0.949300	0.692800	0.975400
C821	C82	0.949700	0.655700	0.091200
C831	C83	0.918600	0.669300	0.178700
H491	H49	0.919600	0.645100	0.258500
C841	C84	0.789000	0.896000	0.899500
H501	H50	0.778500	0.950000	0.883300
H511	H51	0.769100	0.857100	0.863500
H521	H52	0.816100	0.889400	0.861900
Cu51	Cu5	0.055440	0.554070	0.967600
N411	N41	0.077200	0.554300	0.802400
N421	N42	0.055500	0.514500	0.714900
N431	N43	0.076600	0.505000	0.612200
N441	N44	0.219600	0.656900	0.785000
N451	N45	0.220500	0.588900	0.544400
N461	N46	0.355600	0.686900	0.488800
N471	N47	0.355200	0.762900	0.720600
N481	N48	0.483600	0.835200	0.414500
N491	N49	0.503900	0.884200	0.497300
N501	N50	0.484700	0.891500	0.603200
C851	C85	0.115300	0.573700	0.755500
C861	C86	0.115200	0.541000	0.631800
C871	C87	0.149300	0.547400	0.558300
H531	H53	0.148700	0.527000	0.476000
C881	C88	0.184900	0.585500	0.611100
C891	C89	0.184200	0.619600	0.734100
C901	C90	0.150300	0.613300	0.810200
H541	H54	0.150700	0.633900	0.892300
C911	C91	0.252600	0.659700	0.718500
C921	C92	0.254600	0.619700	0.600700
C931	C93	0.293400	0.615800	0.523400
C941	C94	0.326600	0.675800	0.568300
C951	C95	0.326500	0.711800	0.684800
C961	C96	0.292300	0.696900	0.777500
C971	C97	0.309700	0.649400	0.888200
H551	H55	0.320200	0.598100	0.859600
H561	H56	0.332500	0.679200	0.930000
H571	H57	0.287400	0.640300	0.946500
C981	C98	0.281000	0.778300	0.837300
H581	H58	0.304900	0.797800	0.888000
H591	H59	0.273900	0.816900	0.771600
H601	H60	0.257000	0.771100	0.889800
C991	C99	0.386600	0.779500	0.639700
C1001	C100	0.386700	0.740300	0.520500
C1011	C101	0.418400	0.755700	0.438000
H611	H61	0.418300	0.731200	0.358600
C1021	C102	0.449300	0.807200	0.475400
C1031	C103	0.449700	0.844300	0.591200
C1041	C104	0.418600	0.830700	0.678700
H621	H62	0.419600	0.854900	0.758500
C1051	C105	0.289000	0.604000	0.399500
H631	H63	0.278500	0.550000	0.383300
H641	H64	0.269100	0.642900	0.363500
H651	H65	0.316100	0.610600	0.361900
Cu61	Cu6	0.555440	0.054070	0.967600
N511	N51	0.577200	0.054300	0.802400
N521	N52	0.555500	0.014500	0.714900
N531	N53	0.576600	0.005000	0.612200
N541	N54	0.719600	0.156900	0.785000
N551	N55	0.720500	0.088900	0.544400
N561	N56	0.855600	0.186900	0.488800
N571	N57	0.855200	0.262900	0.720600
N581	N58	0.983600	0.335200	0.414500
N591	N59	0.003900	0.384200	0.497300
N601	N60	0.984700	0.391500	0.603200
C1061	C106	0.615300	0.073700	0.755500
C1071	C107	0.615200	0.041000	0.631800
C1081	C108	0.649300	0.047400	0.558300
H661	H66	0.648700	0.027000	0.476000
C1091	C109	0.684900	0.085500	0.611100
C1101	C110	0.684200	0.119600	0.734100
C1111	C111	0.650300	0.113300	0.810200
H671	H67	0.650700	0.133900	0.892300
C1121	C112	0.752600	0.159700	0.718500
C1131	C113	0.754600	0.119700	0.600700
C1141	C114	0.793400	0.115800	0.523400
C1151	C115	0.826600	0.175800	0.568300
C1161	C116	0.826500	0.211800	0.684800
C1171	C117	0.792300	0.196900	0.777500
C1181	C118	0.809700	0.149400	0.888200
H681	H68	0.820200	0.098100	0.859600
H691	H69	0.832500	0.179200	0.930000
H701	H70	0.787400	0.140300	0.946500
C1191	C119	0.781000	0.278300	0.837300
H711	H71	0.804900	0.297800	0.888000
H721	H72	0.773900	0.316900	0.771600
H731	H73	0.757000	0.271100	0.889800
C1201	C120	0.886600	0.279500	0.639700
C1211	C121	0.886700	0.240300	0.520500
C1221	C122	0.918400	0.255700	0.438000
H741	H74	0.918300	0.231200	0.358600
C1231	C123	0.949300	0.307200	0.475400
C1241	C124	0.949700	0.344300	0.591200
C1251	C125	0.918600	0.330700	0.678700
H751	H75	0.919600	0.354900	0.758500
C1261	C126	0.789000	0.104000	0.399500
H761	H76	0.778500	0.050000	0.383300
H771	H77	0.769100	0.142900	0.363500
H781	H78	0.816100	0.110600	0.361900
Cu71	Cu7	0.944560	0.554070	0.532400
N611	N61	0.922800	0.554300	0.697600
N621	N62	0.944500	0.514500	0.785100
N631	N63	0.923400	0.505000	0.887800
N641	N64	0.780400	0.656900	0.715000
N651	N65	0.779500	0.588900	0.955600
N661	N66	0.644400	0.686900	0.011200
N671	N67	0.644800	0.762900	0.779400
N681	N68	0.516400	0.835200	0.085500
N691	N69	0.496100	0.884200	0.002700
N701	N70	0.515300	0.891500	0.896800
C1271	C127	0.884700	0.573700	0.744500
C1281	C128	0.884800	0.541000	0.868200
C1291	C129	0.850700	0.547400	0.941700
H791	H79	0.851300	0.527000	0.024000
C1301	C130	0.815100	0.585500	0.888900
C1311	C131	0.815800	0.619600	0.765900
C1321	C132	0.849700	0.613300	0.689800
H801	H80	0.849300	0.633900	0.607700
C1331	C133	0.747400	0.659700	0.781500
C1341	C134	0.745400	0.619700	0.899300
C1351	C135	0.706600	0.615800	0.976600
C1361	C136	0.673400	0.675800	0.931700
C1371	C137	0.673500	0.711800	0.815200
C1381	C138	0.707700	0.696900	0.722500
C1391	C139	0.690300	0.649400	0.611800
H811	H81	0.679800	0.598100	0.640400
H821	H82	0.667500	0.679200	0.570000
H831	H83	0.712600	0.640300	0.553500
C1401	C140	0.719000	0.778300	0.662700
H841	H84	0.695100	0.797800	0.612000
H851	H85	0.726100	0.816900	0.728400
H861	H86	0.743000	0.771100	0.610200
C1411	C141	0.613400	0.779500	0.860300
C1421	C142	0.613300	0.740300	0.979500
C1431	C143	0.581600	0.755700	0.062000
H871	H87	0.581700	0.731200	0.141400
C1441	C144	0.550700	0.807200	0.024600
C1451	C145	0.550300	0.844300	0.908800
C1461	C146	0.581400	0.830700	0.821300
H881	H88	0.580400	0.854900	0.741500
C1471	C147	0.711000	0.604000	0.100500
H891	H89	0.721500	0.550000	0.116700
H901	H90	0.730900	0.642900	0.136500
H911	H91	0.683900	0.610600	0.138100
Cu81	Cu8	0.444560	0.054070	0.532400
N711	N71	0.422800	0.054300	0.697600
N721	N72	0.444500	0.014500	0.785100
N731	N73	0.423400	0.005000	0.887800
N741	N74	0.280400	0.156900	0.715000
N751	N75	0.279500	0.088900	0.955600
N761	N76	0.144400	0.186900	0.011200
N771	N77	0.144800	0.262900	0.779400
N781	N78	0.016400	0.335200	0.085500
N791	N79	0.996100	0.384200	0.002700
N801	N80	0.015300	0.391500	0.896800
C1481	C148	0.384700	0.073700	0.744500
C1491	C149	0.384800	0.041000	0.868200
C1501	C150	0.350700	0.047400	0.941700
H921	H92	0.351300	0.027000	0.024000
C1511	C151	0.315100	0.085500	0.888900
C1521	C152	0.315800	0.119600	0.765900
C1531	C153	0.349700	0.113300	0.689800
H931	H93	0.349300	0.133900	0.607700
C1541	C154	0.247400	0.159700	0.781500
C1551	C155	0.245400	0.119700	0.899300
C1561	C156	0.206600	0.115800	0.976600
C1571	C157	0.173400	0.175800	0.931700
C1581	C158	0.173500	0.211800	0.815200
C1591	C159	0.207700	0.196900	0.722500
C1601	C160	0.190300	0.149400	0.611800
H941	H94	0.179800	0.098100	0.640400
H951	H95	0.167500	0.179200	0.570000
H961	H96	0.212600	0.140300	0.553500
C1611	C161	0.219000	0.278300	0.662700
H971	H97	0.195100	0.297800	0.612000
H981	H98	0.226100	0.316900	0.728400
H991	H99	0.243000	0.271100	0.610200
C1621	C162	0.113400	0.279500	0.860300
C1631	C163	0.113300	0.240300	0.979500
C1641	C164	0.081600	0.255700	0.062000
H1001	H100	0.081700	0.231200	0.141400
C1651	C165	0.050700	0.307200	0.024600
C1661	C166	0.050300	0.344300	0.908800
C1671	C167	0.081400	0.330700	0.821300
H1011	H101	0.080400	0.354900	0.741500
C1681	C168	0.211000	0.104000	0.100500
H1021	H102	0.221500	0.050000	0.116700
H1031	H103	0.230900	0.142900	0.136500
H1041	H104	0.183900	0.110600	0.138100
Cu91	Cu9	0.000000	0.533460	0.250000
Cu101	Cu10	0.500000	0.033460	0.250000
Cu111	Cu11	0.000000	0.466540	0.750000
Cu121	Cu12	0.500000	0.966540	0.750000
Cu131	Cu13	0.500000	0.174810	0.750000
Cu141	Cu14	0.000000	0.674810	0.750000
Cu151	Cu15	0.500000	0.825190	0.250000
Cu161	Cu16	0.000000	0.325190	0.250000
