data_USAWIW_clean_PM
_symmetry_space_group_name_H-M	'P1'
_cell_length_a	34.300000
_cell_length_b	9.426000
_cell_length_c	21.337000
_cell_angle_alpha	90.000000
_cell_angle_beta	113.766000
_cell_angle_gamma	90.000000
_symmetry_Int_Tables_number 1

loop_
_symmetry_equiv_pos_as_xyz
'x,y,z'

loop_
_atom_site_label
_atom_site_type_symbol
_atom_site_fract_x
_atom_site_fract_y
_atom_site_fract_z
Cd11	Cd1	0.265900	0.122490	0.953510
O11	O1	0.235760	0.140100	0.027800
N11	N1	0.226720	0.914200	0.944900
C11	C1	0.207480	0.042200	0.025400
O21	O2	0.343530	0.124300	0.030900
N21	N2	0.273370	0.687400	0.662200
C21	C2	0.183500	0.047600	0.064400
H11	H1	0.187400	0.123700	0.095500
O31	O3	0.320640	0.069700	0.921700
C31	C3	0.153600	0.941200	0.058200
H21	H2	0.136700	0.950000	0.083900
C41	C4	0.148000	0.828200	0.018000
H31	H3	0.128000	0.757000	0.016600
C51	C5	0.171700	0.814400	0.977200
C61	C6	0.202250	0.921700	0.981600
C71	C7	0.167700	0.700200	0.932400
H41	H4	0.147300	0.627700	0.926700
C81	C8	0.193200	0.694100	0.897200
H51	H5	0.191200	0.615500	0.868200
C91	C9	0.222700	0.804500	0.903600
C101	C10	0.248800	0.806200	0.864300
H61	H6	0.271300	0.873600	0.877900
C111	C11	0.244700	0.724300	0.812000
H71	H7	0.223700	0.651800	0.799800
C121	C12	0.270200	0.737000	0.771100
C131	C13	0.308100	0.817400	0.790900
H81	H8	0.320100	0.861600	0.834600
C141	C14	0.327100	0.830000	0.745400
H91	H9	0.352600	0.883000	0.757400
C151	C15	0.308500	0.764000	0.681200
H101	H10	0.321700	0.775000	0.650000
C161	C16	0.255500	0.672700	0.707300
H111	H11	0.230900	0.614200	0.694600
C171	C17	0.350300	0.090600	0.980900
C181	C18	0.394600	0.065200	0.985300
C191	C19	0.428600	0.062600	0.049700
H121	H12	0.424000	0.079800	0.090000
C201	C20	0.469900	0.033900	0.053600
H131	H13	0.492800	0.029500	0.097400
C211	C21	0.478000	0.012300	0.996700
C221	C22	0.443400	0.008600	0.935300
H141	H14	0.447700	0.985900	0.895100
C231	C23	0.402500	0.036900	0.929500
H151	H15	0.379600	0.036400	0.885600
Cd21	Cd2	0.765900	0.622490	0.953510
O41	O4	0.735760	0.640100	0.027800
N31	N3	0.726720	0.414200	0.944900
C241	C24	0.707480	0.542200	0.025400
O51	O5	0.843530	0.624300	0.030900
N41	N4	0.773370	0.187400	0.662200
C251	C25	0.683500	0.547600	0.064400
H161	H16	0.687400	0.623700	0.095500
O61	O6	0.820640	0.569700	0.921700
C261	C26	0.653600	0.441200	0.058200
H171	H17	0.636700	0.450000	0.083900
C271	C27	0.648000	0.328200	0.018000
H181	H18	0.628000	0.257000	0.016600
C281	C28	0.671700	0.314400	0.977200
C291	C29	0.702250	0.421700	0.981600
C301	C30	0.667700	0.200200	0.932400
H191	H19	0.647300	0.127700	0.926700
C311	C31	0.693200	0.194100	0.897200
H201	H20	0.691200	0.115500	0.868200
C321	C32	0.722700	0.304500	0.903600
C331	C33	0.748800	0.306200	0.864300
H211	H21	0.771300	0.373600	0.877900
C341	C34	0.744700	0.224300	0.812000
H221	H22	0.723700	0.151800	0.799800
C351	C35	0.770200	0.237000	0.771100
C361	C36	0.808100	0.317400	0.790900
H231	H23	0.820100	0.361600	0.834600
C371	C37	0.827100	0.330000	0.745400
H241	H24	0.852600	0.383000	0.757400
C381	C38	0.808500	0.264000	0.681200
H251	H25	0.821700	0.275000	0.650000
C391	C39	0.755500	0.172700	0.707300
H261	H26	0.730900	0.114200	0.694600
C401	C40	0.850300	0.590600	0.980900
C411	C41	0.894600	0.565200	0.985300
C421	C42	0.928600	0.562600	0.049700
H271	H27	0.924000	0.579800	0.090000
C431	C43	0.969900	0.533900	0.053600
H281	H28	0.992800	0.529500	0.097400
C441	C44	0.978000	0.512300	0.996700
C451	C45	0.943400	0.508600	0.935300
H291	H29	0.947700	0.485900	0.895100
C461	C46	0.902500	0.536900	0.929500
H301	H30	0.879600	0.536400	0.885600
Cd31	Cd3	0.734100	0.122490	0.546490
O71	O7	0.764240	0.140100	0.472200
N51	N5	0.773280	0.914200	0.555100
C471	C47	0.792520	0.042200	0.474600
O81	O8	0.656470	0.124300	0.469100
N61	N6	0.726630	0.687400	0.837800
C481	C48	0.816500	0.047600	0.435600
H311	H31	0.812600	0.123700	0.404500
O91	O9	0.679360	0.069700	0.578300
C491	C49	0.846400	0.941200	0.441800
H321	H32	0.863300	0.950000	0.416100
C501	C50	0.852000	0.828200	0.482000
H331	H33	0.872000	0.757000	0.483400
C511	C51	0.828300	0.814400	0.522800
C521	C52	0.797750	0.921700	0.518400
C531	C53	0.832300	0.700200	0.567600
H341	H34	0.852700	0.627700	0.573300
C541	C54	0.806800	0.694100	0.602800
H351	H35	0.808800	0.615500	0.631800
C551	C55	0.777300	0.804500	0.596400
C561	C56	0.751200	0.806200	0.635700
H361	H36	0.728700	0.873600	0.622100
C571	C57	0.755300	0.724300	0.688000
H371	H37	0.776300	0.651800	0.700200
C581	C58	0.729800	0.737000	0.728900
C591	C59	0.691900	0.817400	0.709100
H381	H38	0.679900	0.861600	0.665400
C601	C60	0.672900	0.830000	0.754600
H391	H39	0.647400	0.883000	0.742600
C611	C61	0.691500	0.764000	0.818800
H401	H40	0.678300	0.775000	0.850000
C621	C62	0.744500	0.672700	0.792700
H411	H41	0.769100	0.614200	0.805400
C631	C63	0.649700	0.090600	0.519100
C641	C64	0.605400	0.065200	0.514700
C651	C65	0.571400	0.062600	0.450300
H421	H42	0.576000	0.079800	0.410000
C661	C66	0.530100	0.033900	0.446400
H431	H43	0.507200	0.029500	0.402600
C671	C67	0.522000	0.012300	0.503300
C681	C68	0.556600	0.008600	0.564700
H441	H44	0.552300	0.985900	0.604900
C691	C69	0.597500	0.036900	0.570500
H451	H45	0.620400	0.036400	0.614400
Cd41	Cd4	0.234100	0.622490	0.546490
O101	O10	0.264240	0.640100	0.472200
N71	N7	0.273280	0.414200	0.555100
C701	C70	0.292520	0.542200	0.474600
O111	O11	0.156470	0.624300	0.469100
N81	N8	0.226630	0.187400	0.837800
C711	C71	0.316500	0.547600	0.435600
H461	H46	0.312600	0.623700	0.404500
O121	O12	0.179360	0.569700	0.578300
C721	C72	0.346400	0.441200	0.441800
H471	H47	0.363300	0.450000	0.416100
C731	C73	0.352000	0.328200	0.482000
H481	H48	0.372000	0.257000	0.483400
C741	C74	0.328300	0.314400	0.522800
C751	C75	0.297750	0.421700	0.518400
C761	C76	0.332300	0.200200	0.567600
H491	H49	0.352700	0.127700	0.573300
C771	C77	0.306800	0.194100	0.602800
H501	H50	0.308800	0.115500	0.631800
C781	C78	0.277300	0.304500	0.596400
C791	C79	0.251200	0.306200	0.635700
H511	H51	0.228700	0.373600	0.622100
C801	C80	0.255300	0.224300	0.688000
H521	H52	0.276300	0.151800	0.700200
C811	C81	0.229800	0.237000	0.728900
C821	C82	0.191900	0.317400	0.709100
H531	H53	0.179900	0.361600	0.665400
C831	C83	0.172900	0.330000	0.754600
H541	H54	0.147400	0.383000	0.742600
C841	C84	0.191500	0.264000	0.818800
H551	H55	0.178300	0.275000	0.850000
C851	C85	0.244500	0.172700	0.792700
H561	H56	0.269100	0.114200	0.805400
C861	C86	0.149700	0.590600	0.519100
C871	C87	0.105400	0.565200	0.514700
C881	C88	0.071400	0.562600	0.450300
H571	H57	0.076000	0.579800	0.410000
C891	C89	0.030100	0.533900	0.446400
H581	H58	0.007200	0.529500	0.402600
C901	C90	0.022000	0.512300	0.503300
C911	C91	0.056600	0.508600	0.564700
H591	H59	0.052300	0.485900	0.604900
C921	C92	0.097500	0.536900	0.570500
H601	H60	0.120400	0.536400	0.614400
Cd51	Cd5	0.734100	0.877510	0.046490
O131	O13	0.764240	0.859900	0.972200
N91	N9	0.773280	0.085800	0.055100
C931	C93	0.792520	0.957800	0.974600
O141	O14	0.656470	0.875700	0.969100
N101	N10	0.726630	0.312600	0.337800
C941	C94	0.816500	0.952400	0.935600
H611	H61	0.812600	0.876300	0.904500
O151	O15	0.679360	0.930300	0.078300
C951	C95	0.846400	0.058800	0.941800
H621	H62	0.863300	0.050000	0.916100
C961	C96	0.852000	0.171800	0.982000
H631	H63	0.872000	0.243000	0.983400
C971	C97	0.828300	0.185600	0.022800
C981	C98	0.797750	0.078300	0.018400
C991	C99	0.832300	0.299800	0.067600
H641	H64	0.852700	0.372300	0.073300
C1001	C100	0.806800	0.305900	0.102800
H651	H65	0.808800	0.384500	0.131800
C1011	C101	0.777300	0.195500	0.096400
C1021	C102	0.751200	0.193800	0.135700
H661	H66	0.728700	0.126400	0.122100
C1031	C103	0.755300	0.275700	0.188000
H671	H67	0.776300	0.348200	0.200200
C1041	C104	0.729800	0.263000	0.228900
C1051	C105	0.691900	0.182600	0.209100
H681	H68	0.679900	0.138400	0.165400
C1061	C106	0.672900	0.170000	0.254600
H691	H69	0.647400	0.117000	0.242600
C1071	C107	0.691500	0.236000	0.318800
H701	H70	0.678300	0.225000	0.350000
C1081	C108	0.744500	0.327300	0.292700
H711	H71	0.769100	0.385800	0.305400
C1091	C109	0.649700	0.909400	0.019100
C1101	C110	0.605400	0.934800	0.014700
C1111	C111	0.571400	0.937400	0.950300
H721	H72	0.576000	0.920200	0.910000
C1121	C112	0.530100	0.966100	0.946400
H731	H73	0.507200	0.970500	0.902600
C1131	C113	0.522000	0.987700	0.003300
C1141	C114	0.556600	0.991400	0.064700
H741	H74	0.552300	0.014100	0.104900
C1151	C115	0.597500	0.963100	0.070500
H751	H75	0.620400	0.963600	0.114400
Cd61	Cd6	0.234100	0.377510	0.046490
O161	O16	0.264240	0.359900	0.972200
N111	N11	0.273280	0.585800	0.055100
C1161	C116	0.292520	0.457800	0.974600
O171	O17	0.156470	0.375700	0.969100
N121	N12	0.226630	0.812600	0.337800
C1171	C117	0.316500	0.452400	0.935600
H761	H76	0.312600	0.376300	0.904500
O181	O18	0.179360	0.430300	0.078300
C1181	C118	0.346400	0.558800	0.941800
H771	H77	0.363300	0.550000	0.916100
C1191	C119	0.352000	0.671800	0.982000
H781	H78	0.372000	0.743000	0.983400
C1201	C120	0.328300	0.685600	0.022800
C1211	C121	0.297750	0.578300	0.018400
C1221	C122	0.332300	0.799800	0.067600
H791	H79	0.352700	0.872300	0.073300
C1231	C123	0.306800	0.805900	0.102800
H801	H80	0.308800	0.884500	0.131800
C1241	C124	0.277300	0.695500	0.096400
C1251	C125	0.251200	0.693800	0.135700
H811	H81	0.228700	0.626400	0.122100
C1261	C126	0.255300	0.775700	0.188000
H821	H82	0.276300	0.848200	0.200200
C1271	C127	0.229800	0.763000	0.228900
C1281	C128	0.191900	0.682600	0.209100
H831	H83	0.179900	0.638400	0.165400
C1291	C129	0.172900	0.670000	0.254600
H841	H84	0.147400	0.617000	0.242600
C1301	C130	0.191500	0.736000	0.318800
H851	H85	0.178300	0.725000	0.350000
C1311	C131	0.244500	0.827300	0.292700
H861	H86	0.269100	0.885800	0.305400
C1321	C132	0.149700	0.409400	0.019100
C1331	C133	0.105400	0.434800	0.014700
C1341	C134	0.071400	0.437400	0.950300
H871	H87	0.076000	0.420200	0.910000
C1351	C135	0.030100	0.466100	0.946400
H881	H88	0.007200	0.470500	0.902600
C1361	C136	0.022000	0.487700	0.003300
C1371	C137	0.056600	0.491400	0.064700
H891	H89	0.052300	0.514100	0.104900
C1381	C138	0.097500	0.463100	0.070500
H901	H90	0.120400	0.463600	0.114400
Cd71	Cd7	0.265900	0.877510	0.453510
O191	O19	0.235760	0.859900	0.527800
N131	N13	0.226720	0.085800	0.444900
C1391	C139	0.207480	0.957800	0.525400
O201	O20	0.343530	0.875700	0.530900
N141	N14	0.273370	0.312600	0.162200
C1401	C140	0.183500	0.952400	0.564400
H911	H91	0.187400	0.876300	0.595500
O211	O21	0.320640	0.930300	0.421700
C1411	C141	0.153600	0.058800	0.558200
H921	H92	0.136700	0.050000	0.583900
C1421	C142	0.148000	0.171800	0.518000
H931	H93	0.128000	0.243000	0.516600
C1431	C143	0.171700	0.185600	0.477200
C1441	C144	0.202250	0.078300	0.481600
C1451	C145	0.167700	0.299800	0.432400
H941	H94	0.147300	0.372300	0.426700
C1461	C146	0.193200	0.305900	0.397200
H951	H95	0.191200	0.384500	0.368200
C1471	C147	0.222700	0.195500	0.403600
C1481	C148	0.248800	0.193800	0.364300
H961	H96	0.271300	0.126400	0.377900
C1491	C149	0.244700	0.275700	0.312000
H971	H97	0.223700	0.348200	0.299800
C1501	C150	0.270200	0.263000	0.271100
C1511	C151	0.308100	0.182600	0.290900
H981	H98	0.320100	0.138400	0.334600
C1521	C152	0.327100	0.170000	0.245400
H991	H99	0.352600	0.117000	0.257400
C1531	C153	0.308500	0.236000	0.181200
H1001	H100	0.321700	0.225000	0.150000
C1541	C154	0.255500	0.327300	0.207300
H1011	H101	0.230900	0.385800	0.194600
C1551	C155	0.350300	0.909400	0.480900
C1561	C156	0.394600	0.934800	0.485300
C1571	C157	0.428600	0.937400	0.549700
H1021	H102	0.424000	0.920200	0.590000
C1581	C158	0.469900	0.966100	0.553600
H1031	H103	0.492800	0.970500	0.597400
C1591	C159	0.478000	0.987700	0.496700
C1601	C160	0.443400	0.991400	0.435300
H1041	H104	0.447700	0.014100	0.395100
C1611	C161	0.402500	0.963100	0.429500
H1051	H105	0.379600	0.963600	0.385600
Cd81	Cd8	0.765900	0.377510	0.453510
O221	O22	0.735760	0.359900	0.527800
N151	N15	0.726720	0.585800	0.444900
C1621	C162	0.707480	0.457800	0.525400
O231	O23	0.843530	0.375700	0.530900
N161	N16	0.773370	0.812600	0.162200
C1631	C163	0.683500	0.452400	0.564400
H1061	H106	0.687400	0.376300	0.595500
O241	O24	0.820640	0.430300	0.421700
C1641	C164	0.653600	0.558800	0.558200
H1071	H107	0.636700	0.550000	0.583900
C1651	C165	0.648000	0.671800	0.518000
H1081	H108	0.628000	0.743000	0.516600
C1661	C166	0.671700	0.685600	0.477200
C1671	C167	0.702250	0.578300	0.481600
C1681	C168	0.667700	0.799800	0.432400
H1091	H109	0.647300	0.872300	0.426700
C1691	C169	0.693200	0.805900	0.397200
H1101	H110	0.691200	0.884500	0.368200
C1701	C170	0.722700	0.695500	0.403600
C1711	C171	0.748800	0.693800	0.364300
H1111	H111	0.771300	0.626400	0.377900
C1721	C172	0.744700	0.775700	0.312000
H1121	H112	0.723700	0.848200	0.299800
C1731	C173	0.770200	0.763000	0.271100
C1741	C174	0.808100	0.682600	0.290900
H1131	H113	0.820100	0.638400	0.334600
C1751	C175	0.827100	0.670000	0.245400
H1141	H114	0.852600	0.617000	0.257400
C1761	C176	0.808500	0.736000	0.181200
H1151	H115	0.821700	0.725000	0.150000
C1771	C177	0.755500	0.827300	0.207300
H1161	H116	0.730900	0.885800	0.194600
C1781	C178	0.850300	0.409400	0.480900
C1791	C179	0.894600	0.434800	0.485300
C1801	C180	0.928600	0.437400	0.549700
H1171	H117	0.924000	0.420200	0.590000
C1811	C181	0.969900	0.466100	0.553600
H1181	H118	0.992800	0.470500	0.597400
C1821	C182	0.978000	0.487700	0.496700
C1831	C183	0.943400	0.491400	0.435300
H1191	H119	0.947700	0.514100	0.395100
C1841	C184	0.902500	0.463100	0.429500
H1201	H120	0.879600	0.463600	0.385600
