data_USAYOE_clean_PM
_symmetry_space_group_name_H-M	'P1'
_cell_length_a	19.449900
_cell_length_b	10.883900
_cell_length_c	27.779600
_cell_angle_alpha	90.000000
_cell_angle_beta	104.467000
_cell_angle_gamma	90.000000
_symmetry_Int_Tables_number 1

loop_
_symmetry_equiv_pos_as_xyz
'x,y,z'

loop_
_atom_site_label
_atom_site_type_symbol
_atom_site_fract_x
_atom_site_fract_y
_atom_site_fract_z
O11	O1	0.458260	0.453100	0.060630
O21	O2	0.416170	0.631510	0.977660
O31	O3	0.430490	0.622000	0.459370
C11	C1	0.415400	0.479300	0.085020
Co11	Co1	0.401320	0.725710	0.042190
C21	C2	0.408480	0.733000	0.953820
C31	C3	0.409900	0.395000	0.126550
O41	O4	0.375350	0.574300	0.076760
O51	O5	0.402090	0.829800	0.976790
O61	O6	0.495130	0.737400	0.420850
O71	O7	0.384880	0.146200	0.590290
O81	O8	0.279730	0.270800	0.513780
C41	C4	0.403300	0.734400	0.899770
H11	H1	0.361900	0.366600	0.121300
H21	H2	0.423400	0.438500	0.157600
H31	H3	0.441000	0.326000	0.127400
Co21	Co2	0.270810	0.624420	0.081540
C51	C5	0.392280	0.626300	0.872200
C61	C6	0.408050	0.844800	0.875610
O91	O9	0.159960	0.669600	0.077400
O101	O10	0.257290	0.486200	0.125230
O111	O11	0.302690	0.227100	0.624450
O121	O12	0.216390	0.438500	0.507210
H41	H4	0.389900	0.551800	0.888100
C71	C7	0.384870	0.628400	0.821720
C81	C8	0.401870	0.847100	0.824990
H51	H5	0.415400	0.917700	0.893700
Co31	Co3	0.111850	0.533950	0.026870
C91	C9	0.126230	0.761100	0.090850
C101	C10	0.202360	0.419700	0.117940
H61	H6	0.376700	0.555800	0.803500
C111	C11	0.389530	0.738600	0.797930
H71	H7	0.406000	0.921000	0.809100
O131	O13	0.161140	0.398600	0.076160
O141	O14	0.080190	0.410600	0.970060
O151	O15	0.972170	0.489600	0.940020
C121	C12	0.145160	0.792800	0.144940
O161	O16	0.079370	0.819200	0.061740
C131	C13	0.184440	0.365600	0.162710
O171	O17	0.384290	0.731900	0.747760
C141	C14	0.024330	0.426800	0.935760
C151	C15	0.116120	0.895300	0.161880
C161	C16	0.190010	0.717500	0.179210
C171	C17	0.123050	0.296100	0.157800
C181	C18	0.224550	0.391900	0.210020
C191	C19	0.374500	0.838600	0.719080
C201	C20	0.020950	0.371200	0.886180
H81	H8	0.085400	0.945700	0.139200
C211	C21	0.132090	0.923900	0.211980
C221	C22	0.205830	0.744300	0.229390
H91	H9	0.209600	0.648200	0.168300
H101	H10	0.095900	0.276000	0.126200
C231	C23	0.101880	0.256500	0.199110
C241	C24	0.204560	0.352700	0.251960
H111	H11	0.266100	0.437200	0.213800
C251	C25	0.426490	0.867500	0.695430
C261	C26	0.313300	0.908100	0.711810
C271	C27	0.974340	0.419800	0.844270
C281	C28	0.061230	0.270100	0.881250
H121	H12	0.113000	0.993700	0.223000
C291	C29	0.176680	0.847400	0.245200
H131	H13	0.235800	0.693300	0.252200
H141	H14	0.060500	0.210700	0.195400
C301	C30	0.142900	0.285500	0.246140
H151	H15	0.232300	0.371300	0.283500
H161	H16	0.467800	0.820900	0.701100
C311	C31	0.416950	0.966300	0.663150
H171	H17	0.278200	0.887600	0.727800
C321	C32	0.304970	0.008800	0.680450
H181	H18	0.946400	0.487200	0.847500
C331	C33	0.968970	0.368800	0.797590
C341	C34	0.054320	0.215000	0.835650
H191	H19	0.093500	0.238700	0.909000
O181	O18	0.189070	0.878400	0.295000
O191	O19	0.118290	0.240600	0.284890
C351	C35	0.356390	0.038900	0.656060
H201	H20	0.451200	0.984300	0.646100
H211	H21	0.264200	0.056700	0.675800
H221	H22	0.939500	0.403900	0.769400
C361	C36	0.008190	0.265100	0.793900
H231	H23	0.080300	0.144800	0.832900
C371	C37	0.250010	0.829000	0.326680
C381	C38	0.153260	0.272700	0.333430
C391	C39	0.347050	0.146200	0.620910
C401	C40	0.244360	0.738300	0.359490
C411	C41	0.314600	0.873600	0.324280
C421	C42	0.197800	0.189200	0.361940
C431	C43	0.138000	0.383300	0.352910
C441	C44	0.305900	0.694100	0.391680
H241	H24	0.200200	0.706800	0.360200
C451	C45	0.375320	0.829400	0.356410
H251	H25	0.317700	0.933700	0.301100
C461	C46	0.227330	0.215000	0.411840
H261	H26	0.208400	0.115900	0.348100
C471	C47	0.166900	0.408200	0.402540
H271	H27	0.108500	0.440200	0.332800
C481	C48	0.371440	0.741100	0.390760
H281	H28	0.302900	0.632100	0.414100
H291	H29	0.419400	0.859800	0.354800
C491	C49	0.211180	0.324100	0.432680
H301	H30	0.258100	0.158900	0.431400
H311	H31	0.156700	0.482300	0.415900
C501	C50	0.437890	0.695500	0.426440
C511	C51	0.237510	0.346600	0.486950
O201	O20	0.541740	0.453100	0.439370
O211	O21	0.583830	0.631510	0.522340
O221	O22	0.569510	0.622000	0.040630
C521	C52	0.584600	0.479300	0.414980
Co41	Co4	0.598680	0.725710	0.457810
C531	C53	0.591520	0.733000	0.546180
C541	C54	0.590100	0.395000	0.373450
O231	O23	0.624650	0.574300	0.423240
O241	O24	0.597910	0.829800	0.523210
O251	O25	0.504870	0.737400	0.079150
O261	O26	0.615120	0.146200	0.909710
O271	O27	0.720270	0.270800	0.986220
C551	C55	0.596700	0.734400	0.600230
H321	H32	0.638100	0.366600	0.378700
H331	H33	0.576600	0.438500	0.342400
H341	H34	0.559000	0.326000	0.372600
Co51	Co5	0.729190	0.624420	0.418460
C561	C56	0.607720	0.626300	0.627800
C571	C57	0.591950	0.844800	0.624390
O281	O28	0.840040	0.669600	0.422600
O291	O29	0.742710	0.486200	0.374770
O301	O30	0.697310	0.227100	0.875550
O311	O31	0.783610	0.438500	0.992790
H351	H35	0.610100	0.551800	0.611900
C581	C58	0.615130	0.628400	0.678280
C591	C59	0.598130	0.847100	0.675010
H361	H36	0.584600	0.917700	0.606300
Co61	Co6	0.888150	0.533950	0.473130
C601	C60	0.873770	0.761100	0.409150
C611	C61	0.797640	0.419700	0.382060
H371	H37	0.623300	0.555800	0.696500
C621	C62	0.610470	0.738600	0.702070
H381	H38	0.594000	0.921000	0.690900
O321	O32	0.838860	0.398600	0.423840
O331	O33	0.919810	0.410600	0.529940
O341	O34	0.027830	0.489600	0.559980
C631	C63	0.854840	0.792800	0.355060
O351	O35	0.920630	0.819200	0.438260
C641	C64	0.815560	0.365600	0.337290
O361	O36	0.615710	0.731900	0.752240
C651	C65	0.975670	0.426800	0.564240
C661	C66	0.883880	0.895300	0.338120
C671	C67	0.809990	0.717500	0.320790
C681	C68	0.876950	0.296100	0.342200
C691	C69	0.775450	0.391900	0.289980
C701	C70	0.625500	0.838600	0.780920
C711	C71	0.979050	0.371200	0.613820
H391	H39	0.914600	0.945700	0.360800
C721	C72	0.867910	0.923900	0.288020
C731	C73	0.794170	0.744300	0.270610
H401	H40	0.790400	0.648200	0.331700
H411	H41	0.904100	0.276000	0.373800
C741	C74	0.898120	0.256500	0.300890
C751	C75	0.795440	0.352700	0.248040
H421	H42	0.733900	0.437200	0.286200
C761	C76	0.573510	0.867500	0.804570
C771	C77	0.686700	0.908100	0.788190
C781	C78	0.025660	0.419800	0.655730
C791	C79	0.938770	0.270100	0.618750
H431	H43	0.887000	0.993700	0.277000
C801	C80	0.823320	0.847400	0.254800
H441	H44	0.764200	0.693300	0.247800
H451	H45	0.939500	0.210700	0.304600
C811	C81	0.857100	0.285500	0.253860
H461	H46	0.767700	0.371300	0.216500
H471	H47	0.532200	0.820900	0.798900
C821	C82	0.583050	0.966300	0.836850
H481	H48	0.721800	0.887600	0.772200
C831	C83	0.695030	0.008800	0.819550
H491	H49	0.053600	0.487200	0.652500
C841	C84	0.031030	0.368800	0.702410
C851	C85	0.945680	0.215000	0.664350
H501	H50	0.906500	0.238700	0.591000
O371	O37	0.810930	0.878400	0.205000
O381	O38	0.881710	0.240600	0.215110
C861	C86	0.643610	0.038900	0.843940
H511	H51	0.548800	0.984300	0.853900
H521	H52	0.735800	0.056700	0.824200
H531	H53	0.060500	0.403900	0.730600
C871	C87	0.991810	0.265100	0.706100
H541	H54	0.919700	0.144800	0.667100
C881	C88	0.749990	0.829000	0.173320
C891	C89	0.846740	0.272700	0.166570
C901	C90	0.652950	0.146200	0.879090
C911	C91	0.755640	0.738300	0.140510
C921	C92	0.685400	0.873600	0.175720
C931	C93	0.802200	0.189200	0.138060
C941	C94	0.862000	0.383300	0.147090
C951	C95	0.694100	0.694100	0.108320
H551	H55	0.799800	0.706800	0.139800
C961	C96	0.624680	0.829400	0.143590
H561	H56	0.682300	0.933700	0.198900
C971	C97	0.772670	0.215000	0.088160
H571	H57	0.791600	0.115900	0.151900
C981	C98	0.833100	0.408200	0.097460
H581	H58	0.891500	0.440200	0.167200
C991	C99	0.628560	0.741100	0.109240
H591	H59	0.697100	0.632100	0.085900
H601	H60	0.580600	0.859800	0.145200
C1001	C100	0.788820	0.324100	0.067320
H611	H61	0.741900	0.158900	0.068600
H621	H62	0.843300	0.482300	0.084100
C1011	C101	0.562110	0.695500	0.073560
C1021	C102	0.762490	0.346600	0.013050
O391	O39	0.541740	0.546900	0.939370
O401	O40	0.583830	0.368490	0.022340
O411	O41	0.569510	0.378000	0.540630
C1031	C103	0.584600	0.520700	0.914980
Co71	Co7	0.598680	0.274290	0.957810
C1041	C104	0.591520	0.267000	0.046180
C1051	C105	0.590100	0.605000	0.873450
O421	O42	0.624650	0.425700	0.923240
O431	O43	0.597910	0.170200	0.023210
O441	O44	0.504870	0.262600	0.579150
O451	O45	0.615120	0.853800	0.409710
O461	O46	0.720270	0.729200	0.486220
C1061	C106	0.596700	0.265600	0.100230
H631	H63	0.638100	0.633400	0.878700
H641	H64	0.576600	0.561500	0.842400
H651	H65	0.559000	0.674000	0.872600
Co81	Co8	0.729190	0.375580	0.918460
C1071	C107	0.607720	0.373700	0.127800
C1081	C108	0.591950	0.155200	0.124390
O471	O47	0.840040	0.330400	0.922600
O481	O48	0.742710	0.513800	0.874770
O491	O49	0.697310	0.772900	0.375550
O501	O50	0.783610	0.561500	0.492790
H661	H66	0.610100	0.448200	0.111900
C1091	C109	0.615130	0.371600	0.178280
C1101	C110	0.598130	0.152900	0.175010
H671	H67	0.584600	0.082300	0.106300
Co91	Co9	0.888150	0.466050	0.973130
C1111	C111	0.873770	0.238900	0.909150
C1121	C112	0.797640	0.580300	0.882060
H681	H68	0.623300	0.444200	0.196500
C1131	C113	0.610470	0.261400	0.202070
H691	H69	0.594000	0.079000	0.190900
O511	O51	0.838860	0.601400	0.923840
O521	O52	0.919810	0.589400	0.029940
O531	O53	0.027830	0.510400	0.059980
C1141	C114	0.854840	0.207200	0.855060
O541	O54	0.920630	0.180800	0.938260
C1151	C115	0.815560	0.634400	0.837290
O551	O55	0.615710	0.268100	0.252240
C1161	C116	0.975670	0.573200	0.064240
C1171	C117	0.883880	0.104700	0.838120
C1181	C118	0.809990	0.282500	0.820790
C1191	C119	0.876950	0.703900	0.842200
C1201	C120	0.775450	0.608100	0.789980
C1211	C121	0.625500	0.161400	0.280920
C1221	C122	0.979050	0.628800	0.113820
H701	H70	0.914600	0.054300	0.860800
C1231	C123	0.867910	0.076100	0.788020
C1241	C124	0.794170	0.255700	0.770610
H711	H71	0.790400	0.351800	0.831700
H721	H72	0.904100	0.724000	0.873800
C1251	C125	0.898120	0.743500	0.800890
C1261	C126	0.795440	0.647300	0.748040
H731	H73	0.733900	0.562800	0.786200
C1271	C127	0.573510	0.132500	0.304570
C1281	C128	0.686700	0.091900	0.288190
C1291	C129	0.025660	0.580200	0.155730
C1301	C130	0.938770	0.729900	0.118750
H741	H74	0.887000	0.006300	0.777000
C1311	C131	0.823320	0.152600	0.754800
H751	H75	0.764200	0.306700	0.747800
H761	H76	0.939500	0.789300	0.804600
C1321	C132	0.857100	0.714500	0.753860
H771	H77	0.767700	0.628700	0.716500
H781	H78	0.532200	0.179100	0.298900
C1331	C133	0.583050	0.033700	0.336850
H791	H79	0.721800	0.112400	0.272200
C1341	C134	0.695030	0.991200	0.319550
H801	H80	0.053600	0.512800	0.152500
C1351	C135	0.031030	0.631200	0.202410
C1361	C136	0.945680	0.785000	0.164350
H811	H81	0.906500	0.761300	0.091000
O561	O56	0.810930	0.121600	0.705000
O571	O57	0.881710	0.759400	0.715110
C1371	C137	0.643610	0.961100	0.343940
H821	H82	0.548800	0.015700	0.353900
H831	H83	0.735800	0.943300	0.324200
H841	H84	0.060500	0.596100	0.230600
C1381	C138	0.991810	0.734900	0.206100
H851	H85	0.919700	0.855200	0.167100
C1391	C139	0.749990	0.171000	0.673320
C1401	C140	0.846740	0.727300	0.666570
C1411	C141	0.652950	0.853800	0.379090
C1421	C142	0.755640	0.261700	0.640510
C1431	C143	0.685400	0.126400	0.675720
C1441	C144	0.802200	0.810800	0.638060
C1451	C145	0.862000	0.616700	0.647090
C1461	C146	0.694100	0.305900	0.608320
H861	H86	0.799800	0.293200	0.639800
C1471	C147	0.624680	0.170600	0.643590
H871	H87	0.682300	0.066300	0.698900
C1481	C148	0.772670	0.785000	0.588160
H881	H88	0.791600	0.884100	0.651900
C1491	C149	0.833100	0.591800	0.597460
H891	H89	0.891500	0.559800	0.667200
C1501	C150	0.628560	0.258900	0.609240
H901	H90	0.697100	0.367900	0.585900
H911	H91	0.580600	0.140200	0.645200
C1511	C151	0.788820	0.675900	0.567320
H921	H92	0.741900	0.841100	0.568600
H931	H93	0.843300	0.517700	0.584100
C1521	C152	0.562110	0.304500	0.573560
C1531	C153	0.762490	0.653400	0.513050
O581	O58	0.458260	0.546900	0.560630
O591	O59	0.416170	0.368490	0.477660
O601	O60	0.430490	0.378000	0.959370
C1541	C154	0.415400	0.520700	0.585020
Co101	Co10	0.401320	0.274290	0.542190
C1551	C155	0.408480	0.267000	0.453820
C1561	C156	0.409900	0.605000	0.626550
O611	O61	0.375350	0.425700	0.576760
O621	O62	0.402090	0.170200	0.476790
O631	O63	0.495130	0.262600	0.920850
O641	O64	0.384880	0.853800	0.090290
O651	O65	0.279730	0.729200	0.013780
C1571	C157	0.403300	0.265600	0.399770
H941	H94	0.361900	0.633400	0.621300
H951	H95	0.423400	0.561500	0.657600
H961	H96	0.441000	0.674000	0.627400
Co111	Co11	0.270810	0.375580	0.581540
C1581	C158	0.392280	0.373700	0.372200
C1591	C159	0.408050	0.155200	0.375610
O661	O66	0.159960	0.330400	0.577400
O671	O67	0.257290	0.513800	0.625230
O681	O68	0.302690	0.772900	0.124450
O691	O69	0.216390	0.561500	0.007210
H971	H97	0.389900	0.448200	0.388100
C1601	C160	0.384870	0.371600	0.321720
C1611	C161	0.401870	0.152900	0.324990
H981	H98	0.415400	0.082300	0.393700
Co121	Co12	0.111850	0.466050	0.526870
C1621	C162	0.126230	0.238900	0.590850
C1631	C163	0.202360	0.580300	0.617940
H991	H99	0.376700	0.444200	0.303500
C1641	C164	0.389530	0.261400	0.297930
H1001	H100	0.406000	0.079000	0.309100
O701	O70	0.161140	0.601400	0.576160
O711	O71	0.080190	0.589400	0.470060
O721	O72	0.972170	0.510400	0.440020
C1651	C165	0.145160	0.207200	0.644940
O731	O73	0.079370	0.180800	0.561740
C1661	C166	0.184440	0.634400	0.662710
O741	O74	0.384290	0.268100	0.247760
C1671	C167	0.024330	0.573200	0.435760
C1681	C168	0.116120	0.104700	0.661880
C1691	C169	0.190010	0.282500	0.679210
C1701	C170	0.123050	0.703900	0.657800
C1711	C171	0.224550	0.608100	0.710020
C1721	C172	0.374500	0.161400	0.219080
C1731	C173	0.020950	0.628800	0.386180
H1011	H101	0.085400	0.054300	0.639200
C1741	C174	0.132090	0.076100	0.711980
C1751	C175	0.205830	0.255700	0.729390
H1021	H102	0.209600	0.351800	0.668300
H1031	H103	0.095900	0.724000	0.626200
C1761	C176	0.101880	0.743500	0.699110
C1771	C177	0.204560	0.647300	0.751960
H1041	H104	0.266100	0.562800	0.713800
C1781	C178	0.426490	0.132500	0.195430
C1791	C179	0.313300	0.091900	0.211810
C1801	C180	0.974340	0.580200	0.344270
C1811	C181	0.061230	0.729900	0.381250
H1051	H105	0.113000	0.006300	0.723000
C1821	C182	0.176680	0.152600	0.745200
H1061	H106	0.235800	0.306700	0.752200
H1071	H107	0.060500	0.789300	0.695400
C1831	C183	0.142900	0.714500	0.746140
H1081	H108	0.232300	0.628700	0.783500
H1091	H109	0.467800	0.179100	0.201100
C1841	C184	0.416950	0.033700	0.163150
H1101	H110	0.278200	0.112400	0.227800
C1851	C185	0.304970	0.991200	0.180450
H1111	H111	0.946400	0.512800	0.347500
C1861	C186	0.968970	0.631200	0.297590
C1871	C187	0.054320	0.785000	0.335650
H1121	H112	0.093500	0.761300	0.409000
O751	O75	0.189070	0.121600	0.795000
O761	O76	0.118290	0.759400	0.784890
C1881	C188	0.356390	0.961100	0.156060
H1131	H113	0.451200	0.015700	0.146100
H1141	H114	0.264200	0.943300	0.175800
H1151	H115	0.939500	0.596100	0.269400
C1891	C189	0.008190	0.734900	0.293900
H1161	H116	0.080300	0.855200	0.332900
C1901	C190	0.250010	0.171000	0.826680
C1911	C191	0.153260	0.727300	0.833430
C1921	C192	0.347050	0.853800	0.120910
C1931	C193	0.244360	0.261700	0.859490
C1941	C194	0.314600	0.126400	0.824280
C1951	C195	0.197800	0.810800	0.861940
C1961	C196	0.138000	0.616700	0.852910
C1971	C197	0.305900	0.305900	0.891680
H1171	H117	0.200200	0.293200	0.860200
C1981	C198	0.375320	0.170600	0.856410
H1181	H118	0.317700	0.066300	0.801100
C1991	C199	0.227330	0.785000	0.911840
H1191	H119	0.208400	0.884100	0.848100
C2001	C200	0.166900	0.591800	0.902540
H1201	H120	0.108500	0.559800	0.832800
C2011	C201	0.371440	0.258900	0.890760
H1211	H121	0.302900	0.367900	0.914100
H1221	H122	0.419400	0.140200	0.854800
C2021	C202	0.211180	0.675900	0.932680
H1231	H123	0.258100	0.841100	0.931400
H1241	H124	0.156700	0.517700	0.915900
C2031	C203	0.437890	0.304500	0.926440
C2041	C204	0.237510	0.653400	0.986950
Co131	Co13	0.500000	0.500000	0.000000
Co141	Co14	0.500000	0.500000	0.500000
O771	O77	0.000000	0.201500	0.750000
O781	O78	0.000000	0.798500	0.250000
