data_USEVOF_clean_PM
_symmetry_space_group_name_H-M	'P1'
_cell_length_a	17.993800
_cell_length_b	17.993800
_cell_length_c	22.182900
_cell_angle_alpha	90.000000
_cell_angle_beta	90.000000
_cell_angle_gamma	90.000000
_symmetry_Int_Tables_number 1

loop_
_symmetry_equiv_pos_as_xyz
'x,y,z'

loop_
_atom_site_label
_atom_site_type_symbol
_atom_site_fract_x
_atom_site_fract_y
_atom_site_fract_z
C11	C1	0.156200	0.436000	0.895500
H11	H1	0.139700	0.390400	0.912400
C21	C2	0.200600	0.434200	0.844200
C31	C3	0.219500	0.362400	0.813500
O11	O1	0.259500	0.368000	0.766600
O21	O2	0.193500	0.302970	0.834930
C41	C4	0.656200	0.936000	0.395500
H21	H2	0.639700	0.890400	0.412400
C51	C5	0.700600	0.934200	0.344200
C61	C6	0.719500	0.862400	0.313500
O31	O3	0.759500	0.868000	0.266600
O41	O4	0.693500	0.802970	0.334930
C71	C7	0.843800	0.564000	0.895500
H31	H3	0.860300	0.609600	0.912400
C81	C8	0.799400	0.565800	0.844200
C91	C9	0.780500	0.637600	0.813500
O51	O5	0.740500	0.632000	0.766600
O61	O6	0.806500	0.697030	0.834930
C101	C10	0.343800	0.064000	0.395500
H41	H4	0.360300	0.109600	0.412400
C111	C11	0.299400	0.065800	0.344200
C121	C12	0.280500	0.137600	0.313500
O71	O7	0.240500	0.132000	0.266600
O81	O8	0.306500	0.197030	0.334930
C131	C13	0.564000	0.156200	0.895500
H51	H5	0.609600	0.139700	0.912400
C141	C14	0.565800	0.200600	0.844200
C151	C15	0.637600	0.219500	0.813500
O91	O9	0.632000	0.259500	0.766600
O101	O10	0.697030	0.193500	0.834930
C161	C16	0.064000	0.656200	0.395500
H61	H6	0.109600	0.639700	0.412400
C171	C17	0.065800	0.700600	0.344200
C181	C18	0.137600	0.719500	0.313500
O111	O11	0.132000	0.759500	0.266600
O121	O12	0.197030	0.693500	0.334930
C191	C19	0.436000	0.843800	0.895500
H71	H7	0.390400	0.860300	0.912400
C201	C20	0.434200	0.799400	0.844200
C211	C21	0.362400	0.780500	0.813500
O131	O13	0.368000	0.740500	0.766600
O141	O14	0.302970	0.806500	0.834930
C221	C22	0.936000	0.343800	0.395500
H81	H8	0.890400	0.360300	0.412400
C231	C23	0.934200	0.299400	0.344200
C241	C24	0.862400	0.280500	0.313500
O151	O15	0.868000	0.240500	0.266600
O161	O16	0.802970	0.306500	0.334930
C251	C25	0.843800	0.436000	0.104500
H91	H9	0.860300	0.390400	0.087600
C261	C26	0.799400	0.434200	0.155800
C271	C27	0.780500	0.362400	0.186500
O171	O17	0.740500	0.368000	0.233400
O181	O18	0.806500	0.302970	0.165070
C281	C28	0.343800	0.936000	0.604500
H101	H10	0.360300	0.890400	0.587600
C291	C29	0.299400	0.934200	0.655800
C301	C30	0.280500	0.862400	0.686500
O191	O19	0.240500	0.868000	0.733400
O201	O20	0.306500	0.802970	0.665070
C311	C31	0.156200	0.564000	0.104500
H111	H11	0.139700	0.609600	0.087600
C321	C32	0.200600	0.565800	0.155800
C331	C33	0.219500	0.637600	0.186500
O211	O21	0.259500	0.632000	0.233400
O221	O22	0.193500	0.697030	0.165070
C341	C34	0.656200	0.064000	0.604500
H121	H12	0.639700	0.109600	0.587600
C351	C35	0.700600	0.065800	0.655800
C361	C36	0.719500	0.137600	0.686500
O231	O23	0.759500	0.132000	0.733400
O241	O24	0.693500	0.197030	0.665070
C371	C37	0.436000	0.156200	0.104500
H131	H13	0.390400	0.139700	0.087600
C381	C38	0.434200	0.200600	0.155800
C391	C39	0.362400	0.219500	0.186500
O251	O25	0.368000	0.259500	0.233400
O261	O26	0.302970	0.193500	0.165070
C401	C40	0.936000	0.656200	0.604500
H141	H14	0.890400	0.639700	0.587600
C411	C41	0.934200	0.700600	0.655800
C421	C42	0.862400	0.719500	0.686500
O271	O27	0.868000	0.759500	0.733400
O281	O28	0.802970	0.693500	0.665070
C431	C43	0.564000	0.843800	0.104500
H151	H15	0.609600	0.860300	0.087600
C441	C44	0.565800	0.799400	0.155800
C451	C45	0.637600	0.780500	0.186500
O291	O29	0.632000	0.740500	0.233400
O301	O30	0.697030	0.806500	0.165070
C461	C46	0.064000	0.343800	0.604500
H161	H16	0.109600	0.360300	0.587600
C471	C47	0.065800	0.299400	0.655800
C481	C48	0.137600	0.280500	0.686500
O311	O31	0.132000	0.240500	0.733400
O321	O32	0.197030	0.306500	0.665070
C491	C49	0.843800	0.564000	0.104500
H171	H17	0.860300	0.609600	0.087600
C501	C50	0.799400	0.565800	0.155800
C511	C51	0.780500	0.637600	0.186500
O331	O33	0.740500	0.632000	0.233400
O341	O34	0.806500	0.697030	0.165070
C521	C52	0.343800	0.064000	0.604500
H181	H18	0.360300	0.109600	0.587600
C531	C53	0.299400	0.065800	0.655800
C541	C54	0.280500	0.137600	0.686500
O351	O35	0.240500	0.132000	0.733400
O361	O36	0.306500	0.197030	0.665070
C551	C55	0.156200	0.436000	0.104500
H191	H19	0.139700	0.390400	0.087600
C561	C56	0.200600	0.434200	0.155800
C571	C57	0.219500	0.362400	0.186500
O371	O37	0.259500	0.368000	0.233400
O381	O38	0.193500	0.302970	0.165070
C581	C58	0.656200	0.936000	0.604500
H201	H20	0.639700	0.890400	0.587600
C591	C59	0.700600	0.934200	0.655800
C601	C60	0.719500	0.862400	0.686500
O391	O39	0.759500	0.868000	0.733400
O401	O40	0.693500	0.802970	0.665070
C611	C61	0.436000	0.843800	0.104500
H211	H21	0.390400	0.860300	0.087600
C621	C62	0.434200	0.799400	0.155800
C631	C63	0.362400	0.780500	0.186500
O411	O41	0.368000	0.740500	0.233400
O421	O42	0.302970	0.806500	0.165070
C641	C64	0.936000	0.343800	0.604500
H221	H22	0.890400	0.360300	0.587600
C651	C65	0.934200	0.299400	0.655800
C661	C66	0.862400	0.280500	0.686500
O431	O43	0.868000	0.240500	0.733400
O441	O44	0.802970	0.306500	0.665070
C671	C67	0.564000	0.156200	0.104500
H231	H23	0.609600	0.139700	0.087600
C681	C68	0.565800	0.200600	0.155800
C691	C69	0.637600	0.219500	0.186500
O451	O45	0.632000	0.259500	0.233400
O461	O46	0.697030	0.193500	0.165070
C701	C70	0.064000	0.656200	0.604500
H241	H24	0.109600	0.639700	0.587600
C711	C71	0.065800	0.700600	0.655800
C721	C72	0.137600	0.719500	0.686500
O471	O47	0.132000	0.759500	0.733400
O481	O48	0.197030	0.693500	0.665070
C731	C73	0.156200	0.564000	0.895500
H251	H25	0.139700	0.609600	0.912400
C741	C74	0.200600	0.565800	0.844200
C751	C75	0.219500	0.637600	0.813500
O491	O49	0.259500	0.632000	0.766600
O501	O50	0.193500	0.697030	0.834930
C761	C76	0.656200	0.064000	0.395500
H261	H26	0.639700	0.109600	0.412400
C771	C77	0.700600	0.065800	0.344200
C781	C78	0.719500	0.137600	0.313500
O511	O51	0.759500	0.132000	0.266600
O521	O52	0.693500	0.197030	0.334930
C791	C79	0.843800	0.436000	0.895500
H271	H27	0.860300	0.390400	0.912400
C801	C80	0.799400	0.434200	0.844200
C811	C81	0.780500	0.362400	0.813500
O531	O53	0.740500	0.368000	0.766600
O541	O54	0.806500	0.302970	0.834930
C821	C82	0.343800	0.936000	0.395500
H281	H28	0.360300	0.890400	0.412400
C831	C83	0.299400	0.934200	0.344200
C841	C84	0.280500	0.862400	0.313500
O551	O55	0.240500	0.868000	0.266600
O561	O56	0.306500	0.802970	0.334930
C851	C85	0.564000	0.843800	0.895500
H291	H29	0.609600	0.860300	0.912400
C861	C86	0.565800	0.799400	0.844200
C871	C87	0.637600	0.780500	0.813500
O571	O57	0.632000	0.740500	0.766600
O581	O58	0.697030	0.806500	0.834930
C881	C88	0.064000	0.343800	0.395500
H301	H30	0.109600	0.360300	0.412400
C891	C89	0.065800	0.299400	0.344200
C901	C90	0.137600	0.280500	0.313500
O591	O59	0.132000	0.240500	0.266600
O601	O60	0.197030	0.306500	0.334930
C911	C91	0.436000	0.156200	0.895500
H311	H31	0.390400	0.139700	0.912400
C921	C92	0.434200	0.200600	0.844200
C931	C93	0.362400	0.219500	0.813500
O611	O61	0.368000	0.259500	0.766600
O621	O62	0.302970	0.193500	0.834930
C941	C94	0.936000	0.656200	0.395500
H321	H32	0.890400	0.639700	0.412400
C951	C95	0.934200	0.700600	0.344200
C961	C96	0.862400	0.719500	0.313500
O631	O63	0.868000	0.759500	0.266600
O641	O64	0.802970	0.693500	0.334930
C971	C97	0.223200	0.500000	0.819000
H331	H33	0.254200	0.500000	0.784300
N11	N1	0.135700	0.500000	0.921900
C981	C98	0.723200	0.000000	0.319000
H341	H34	0.754200	0.000000	0.284300
N21	N2	0.635700	0.000000	0.421900
C991	C99	0.776800	0.500000	0.819000
H351	H35	0.745800	0.500000	0.784300
N31	N3	0.864300	0.500000	0.921900
C1001	C100	0.276800	0.000000	0.319000
H361	H36	0.245800	0.000000	0.284300
N41	N4	0.364300	0.000000	0.421900
C1011	C101	0.500000	0.223200	0.819000
H371	H37	0.500000	0.254200	0.784300
N51	N5	0.500000	0.135700	0.921900
C1021	C102	0.000000	0.723200	0.319000
H381	H38	0.000000	0.754200	0.284300
N61	N6	0.000000	0.635700	0.421900
C1031	C103	0.500000	0.776800	0.819000
H391	H39	0.500000	0.745800	0.784300
N71	N7	0.500000	0.864300	0.921900
C1041	C104	0.000000	0.276800	0.319000
H401	H40	0.000000	0.245800	0.284300
N81	N8	0.000000	0.364300	0.421900
C1051	C105	0.776800	0.500000	0.181000
H411	H41	0.745800	0.500000	0.215700
N91	N9	0.864300	0.500000	0.078100
C1061	C106	0.276800	0.000000	0.681000
H421	H42	0.245800	0.000000	0.715700
N101	N10	0.364300	0.000000	0.578100
C1071	C107	0.223200	0.500000	0.181000
H431	H43	0.254200	0.500000	0.215700
N111	N11	0.135700	0.500000	0.078100
C1081	C108	0.723200	0.000000	0.681000
H441	H44	0.754200	0.000000	0.715700
N121	N12	0.635700	0.000000	0.578100
C1091	C109	0.500000	0.223200	0.181000
H451	H45	0.500000	0.254200	0.215700
N131	N13	0.500000	0.135700	0.078100
C1101	C110	0.000000	0.723200	0.681000
H461	H46	0.000000	0.754200	0.715700
N141	N14	0.000000	0.635700	0.578100
C1111	C111	0.500000	0.776800	0.181000
H471	H47	0.500000	0.745800	0.215700
N151	N15	0.500000	0.864300	0.078100
C1121	C112	0.000000	0.276800	0.681000
H481	H48	0.000000	0.245800	0.715700
N161	N16	0.000000	0.364300	0.578100
Cu11	Cu1	0.289570	0.289570	0.710550
Cu21	Cu2	0.789570	0.789570	0.210550
Cu31	Cu3	0.710430	0.710430	0.710550
Cu41	Cu4	0.210430	0.210430	0.210550
Cu51	Cu5	0.710430	0.289570	0.710550
Cu61	Cu6	0.210430	0.789570	0.210550
Cu71	Cu7	0.289570	0.710430	0.710550
Cu81	Cu8	0.789570	0.210430	0.210550
Cu91	Cu9	0.710430	0.289570	0.289450
Cu101	Cu10	0.210430	0.789570	0.789450
Cu111	Cu11	0.289570	0.710430	0.289450
Cu121	Cu12	0.789570	0.210430	0.789450
Cu131	Cu13	0.289570	0.289570	0.289450
Cu141	Cu14	0.789570	0.789570	0.789450
Cu151	Cu15	0.710430	0.710430	0.289450
Cu161	Cu16	0.210430	0.210430	0.789450
Cu171	Cu17	0.074040	0.500000	0.000000
Cu181	Cu18	0.574040	0.000000	0.500000
Cu191	Cu19	0.925960	0.500000	0.000000
Cu201	Cu20	0.425960	0.000000	0.500000
Cu211	Cu21	0.500000	0.074040	0.000000
Cu221	Cu22	0.000000	0.574040	0.500000
Cu231	Cu23	0.500000	0.925960	0.000000
Cu241	Cu24	0.000000	0.425960	0.500000
I11	I1	0.000000	0.373040	0.000000
I21	I2	0.500000	0.873040	0.500000
I31	I3	0.000000	0.626960	0.000000
I41	I4	0.500000	0.126960	0.500000
I51	I5	0.626960	0.000000	0.000000
I61	I6	0.126960	0.500000	0.500000
I71	I7	0.373040	0.000000	0.000000
I81	I8	0.873040	0.500000	0.500000
