data_USIRUL_clean_PM
_symmetry_space_group_name_H-M	'P1'
_cell_length_a	22.002300
_cell_length_b	19.241100
_cell_length_c	8.731100
_cell_angle_alpha	90.000000
_cell_angle_beta	90.000000
_cell_angle_gamma	90.000000
_symmetry_Int_Tables_number 1

loop_
_symmetry_equiv_pos_as_xyz
'x,y,z'

loop_
_atom_site_label
_atom_site_type_symbol
_atom_site_fract_x
_atom_site_fract_y
_atom_site_fract_z
C11	C1	0.498760	0.152720	0.443300
C21	C2	0.501430	0.183240	0.556900
N11	N1	0.427030	0.032840	0.251440
C31	C3	0.430980	0.968540	0.192300
H11	H1	0.464600	0.957100	0.128700
N21	N2	0.337520	0.932080	0.304200
C41	C4	0.387110	0.918560	0.221800
H21	H2	0.392600	0.873100	0.181900
N31	N3	0.263300	0.079580	0.474300
C51	C5	0.332010	0.997300	0.357800
N41	N4	0.145460	0.183410	0.646700
C61	C6	0.376800	0.047180	0.333000
H31	H3	0.371700	0.092400	0.374800
N51	N5	0.215850	0.286980	0.509200
C71	C7	0.276210	0.012490	0.448000
N61	N6	0.069050	0.805870	0.715300
C81	C8	0.240360	0.957530	0.499100
H41	H4	0.251300	0.910900	0.476600
C91	C9	0.188150	0.972170	0.583700
C101	C10	0.147360	0.914950	0.631800
C111	C11	0.143330	0.854150	0.544800
H51	H5	0.167500	0.848600	0.455500
C121	C12	0.103850	0.802070	0.589500
H61	H6	0.101200	0.761500	0.527900
C131	C13	0.073270	0.863980	0.799100
H71	H7	0.049100	0.867500	0.889000
C141	C14	0.111010	0.919330	0.761800
H81	H8	0.112000	0.959700	0.824300
C151	C15	0.175030	0.041790	0.614700
H91	H9	0.140700	0.053900	0.675000
C161	C16	0.213210	0.093540	0.555800
C171	C17	0.196750	0.167960	0.571900
C181	C18	0.129360	0.250690	0.650800
H101	H10	0.093200	0.263700	0.702900
C191	C19	0.164010	0.301560	0.581300
H111	H11	0.150500	0.348400	0.585000
C201	C20	0.231850	0.219950	0.504900
H121	H12	0.268500	0.207400	0.454400
N71	N7	0.501240	0.152720	0.056700
C211	C21	0.498570	0.183240	0.943100
N81	N8	0.572970	0.032840	0.248560
C221	C22	0.569020	0.968540	0.307700
H131	H13	0.535400	0.957100	0.371300
N91	N9	0.662480	0.932080	0.195800
C231	C23	0.612890	0.918560	0.278200
H141	H14	0.607400	0.873100	0.318100
N101	N10	0.736700	0.079580	0.025700
C241	C24	0.667990	0.997300	0.142200
N111	N11	0.854540	0.183410	0.853300
C251	C25	0.623200	0.047180	0.167000
H151	H15	0.628300	0.092400	0.125200
N121	N12	0.784150	0.286980	0.990800
C261	C26	0.723790	0.012490	0.052000
N131	N13	0.930950	0.805870	0.784700
C271	C27	0.759640	0.957530	0.000900
H161	H16	0.748700	0.910900	0.023400
C281	C28	0.811850	0.972170	0.916300
C291	C29	0.852640	0.914950	0.868200
C301	C30	0.856670	0.854150	0.955200
H171	H17	0.832500	0.848600	0.044500
C311	C31	0.896150	0.802070	0.910500
H181	H18	0.898800	0.761500	0.972100
C321	C32	0.926730	0.863980	0.700900
H191	H19	0.950900	0.867500	0.611000
C331	C33	0.888990	0.919330	0.738200
H201	H20	0.888000	0.959700	0.675700
C341	C34	0.824970	0.041790	0.885300
H211	H21	0.859300	0.053900	0.825000
C351	C35	0.786790	0.093540	0.944200
C361	C36	0.803250	0.167960	0.928100
C371	C37	0.870640	0.250690	0.849200
H221	H22	0.906800	0.263700	0.797100
C381	C38	0.835990	0.301560	0.918700
H231	H23	0.849500	0.348400	0.915000
C391	C39	0.768150	0.219950	0.995100
H241	H24	0.731500	0.207400	0.045600
C401	C40	0.998760	0.652720	0.056700
C411	C41	0.001430	0.683240	0.943100
N141	N14	0.927030	0.532840	0.248560
C421	C42	0.930980	0.468540	0.307700
H251	H25	0.964600	0.457100	0.371300
N151	N15	0.837520	0.432080	0.195800
C431	C43	0.887110	0.418560	0.278200
H261	H26	0.892600	0.373100	0.318100
N161	N16	0.763300	0.579580	0.025700
C441	C44	0.832010	0.497300	0.142200
N171	N17	0.645460	0.683410	0.853300
C451	C45	0.876800	0.547180	0.167000
H271	H27	0.871700	0.592400	0.125200
N181	N18	0.715850	0.786980	0.990800
C461	C46	0.776210	0.512490	0.052000
N191	N19	0.569050	0.305870	0.784700
C471	C47	0.740360	0.457530	0.000900
H281	H28	0.751300	0.410900	0.023400
C481	C48	0.688150	0.472170	0.916300
C491	C49	0.647360	0.414950	0.868200
C501	C50	0.643330	0.354150	0.955200
H291	H29	0.667500	0.348600	0.044500
C511	C51	0.603850	0.302070	0.910500
H301	H30	0.601200	0.261500	0.972100
C521	C52	0.573270	0.363980	0.700900
H311	H31	0.549100	0.367500	0.611000
C531	C53	0.611010	0.419330	0.738200
H321	H32	0.612000	0.459700	0.675700
C541	C54	0.675030	0.541790	0.885300
H331	H33	0.640700	0.553900	0.825000
C551	C55	0.713210	0.593540	0.944200
C561	C56	0.696750	0.667960	0.928100
C571	C57	0.629360	0.750690	0.849200
H341	H34	0.593200	0.763700	0.797100
C581	C58	0.664010	0.801560	0.918700
H351	H35	0.650500	0.848400	0.915000
C591	C59	0.731850	0.719950	0.995100
H361	H36	0.768500	0.707400	0.045600
N201	N20	0.001240	0.652720	0.443300
C601	C60	0.998570	0.683240	0.556900
N211	N21	0.072970	0.532840	0.251440
C611	C61	0.069020	0.468540	0.192300
H371	H37	0.035400	0.457100	0.128700
N221	N22	0.162480	0.432080	0.304200
C621	C62	0.112890	0.418560	0.221800
H381	H38	0.107400	0.373100	0.181900
N231	N23	0.236700	0.579580	0.474300
C631	C63	0.167990	0.497300	0.357800
N241	N24	0.354540	0.683410	0.646700
C641	C64	0.123200	0.547180	0.333000
H391	H39	0.128300	0.592400	0.374800
N251	N25	0.284150	0.786980	0.509200
C651	C65	0.223790	0.512490	0.448000
N261	N26	0.430950	0.305870	0.715300
C661	C66	0.259640	0.457530	0.499100
H401	H40	0.248700	0.410900	0.476600
C671	C67	0.311850	0.472170	0.583700
C681	C68	0.352640	0.414950	0.631800
C691	C69	0.356670	0.354150	0.544800
H411	H41	0.332500	0.348600	0.455500
C701	C70	0.396150	0.302070	0.589500
H421	H42	0.398800	0.261500	0.527900
C711	C71	0.426730	0.363980	0.799100
H431	H43	0.450900	0.367500	0.889000
C721	C72	0.388990	0.419330	0.761800
H441	H44	0.388000	0.459700	0.824300
C731	C73	0.324970	0.541790	0.614700
H451	H45	0.359300	0.553900	0.675000
C741	C74	0.286790	0.593540	0.555800
C751	C75	0.303250	0.667960	0.571900
C761	C76	0.370640	0.750690	0.650800
H461	H46	0.406800	0.763700	0.702900
C771	C77	0.335990	0.801560	0.581300
H471	H47	0.349500	0.848400	0.585000
C781	C78	0.268150	0.719950	0.504900
H481	H48	0.231500	0.707400	0.454400
Cu11	Cu1	0.500000	0.104980	0.250000
Cu21	Cu2	0.000000	0.604980	0.250000
Cu31	Cu3	0.500000	0.231460	0.750000
Cu41	Cu4	0.000000	0.731460	0.750000
C791	C79	0.001240	0.347280	0.943300
C801	C80	0.998570	0.316760	0.056900
N271	N27	0.072970	0.467160	0.751440
C811	C81	0.069020	0.531460	0.692300
H491	H49	0.035400	0.542900	0.628700
N281	N28	0.162480	0.567920	0.804200
C821	C82	0.112890	0.581440	0.721800
H501	H50	0.107400	0.626900	0.681900
N291	N29	0.236700	0.420420	0.974300
C831	C83	0.167990	0.502700	0.857800
N301	N30	0.354540	0.316590	0.146700
C841	C84	0.123200	0.452820	0.833000
H511	H51	0.128300	0.407600	0.874800
N311	N31	0.284150	0.213020	0.009200
C851	C85	0.223790	0.487510	0.948000
N321	N32	0.430950	0.694130	0.215300
C861	C86	0.259640	0.542470	0.999100
H521	H52	0.248700	0.589100	0.976600
C871	C87	0.311850	0.527830	0.083700
C881	C88	0.352640	0.585050	0.131800
C891	C89	0.356670	0.645850	0.044800
H531	H53	0.332500	0.651400	0.955500
C901	C90	0.396150	0.697930	0.089500
H541	H54	0.398800	0.738500	0.027900
C911	C91	0.426730	0.636020	0.299100
H551	H55	0.450900	0.632500	0.389000
C921	C92	0.388990	0.580670	0.261800
H561	H56	0.388000	0.540300	0.324300
C931	C93	0.324970	0.458210	0.114700
H571	H57	0.359300	0.446100	0.175000
C941	C94	0.286790	0.406460	0.055800
C951	C95	0.303250	0.332040	0.071900
C961	C96	0.370640	0.249310	0.150800
H581	H58	0.406800	0.236300	0.202900
C971	C97	0.335990	0.198440	0.081300
H591	H59	0.349500	0.151600	0.085000
C981	C98	0.268150	0.280050	0.004900
H601	H60	0.231500	0.292600	0.954400
N331	N33	0.998760	0.347280	0.556700
C991	C99	0.001430	0.316760	0.443100
N341	N34	0.927030	0.467160	0.748560
C1001	C100	0.930980	0.531460	0.807700
H611	H61	0.964600	0.542900	0.871300
N351	N35	0.837520	0.567920	0.695800
C1011	C101	0.887110	0.581440	0.778200
H621	H62	0.892600	0.626900	0.818100
N361	N36	0.763300	0.420420	0.525700
C1021	C102	0.832010	0.502700	0.642200
N371	N37	0.645460	0.316590	0.353300
C1031	C103	0.876800	0.452820	0.667000
H631	H63	0.871700	0.407600	0.625200
N381	N38	0.715850	0.213020	0.490800
C1041	C104	0.776210	0.487510	0.552000
N391	N39	0.569050	0.694130	0.284700
C1051	C105	0.740360	0.542470	0.500900
H641	H64	0.751300	0.589100	0.523400
C1061	C106	0.688150	0.527830	0.416300
C1071	C107	0.647360	0.585050	0.368200
C1081	C108	0.643330	0.645850	0.455200
H651	H65	0.667500	0.651400	0.544500
C1091	C109	0.603850	0.697930	0.410500
H661	H66	0.601200	0.738500	0.472100
C1101	C110	0.573270	0.636020	0.200900
H671	H67	0.549100	0.632500	0.111000
C1111	C111	0.611010	0.580670	0.238200
H681	H68	0.612000	0.540300	0.175700
C1121	C112	0.675030	0.458210	0.385300
H691	H69	0.640700	0.446100	0.325000
C1131	C113	0.713210	0.406460	0.444200
C1141	C114	0.696750	0.332040	0.428100
C1151	C115	0.629360	0.249310	0.349200
H701	H70	0.593200	0.236300	0.297100
C1161	C116	0.664010	0.198440	0.418700
H711	H71	0.650500	0.151600	0.415000
C1171	C117	0.731850	0.280050	0.495100
H721	H72	0.768500	0.292600	0.545600
C1181	C118	0.501240	0.847280	0.556700
C1191	C119	0.498570	0.816760	0.443100
N401	N40	0.572970	0.967160	0.748560
C1201	C120	0.569020	0.031460	0.807700
H731	H73	0.535400	0.042900	0.871300
N411	N41	0.662480	0.067920	0.695800
C1211	C121	0.612890	0.081440	0.778200
H741	H74	0.607400	0.126900	0.818100
N421	N42	0.736700	0.920420	0.525700
C1221	C122	0.667990	0.002700	0.642200
N431	N43	0.854540	0.816590	0.353300
C1231	C123	0.623200	0.952820	0.667000
H751	H75	0.628300	0.907600	0.625200
N441	N44	0.784150	0.713020	0.490800
C1241	C124	0.723790	0.987510	0.552000
N451	N45	0.930950	0.194130	0.284700
C1251	C125	0.759640	0.042470	0.500900
H761	H76	0.748700	0.089100	0.523400
C1261	C126	0.811850	0.027830	0.416300
C1271	C127	0.852640	0.085050	0.368200
C1281	C128	0.856670	0.145850	0.455200
H771	H77	0.832500	0.151400	0.544500
C1291	C129	0.896150	0.197930	0.410500
H781	H78	0.898800	0.238500	0.472100
C1301	C130	0.926730	0.136020	0.200900
H791	H79	0.950900	0.132500	0.111000
C1311	C131	0.888990	0.080670	0.238200
H801	H80	0.888000	0.040300	0.175700
C1321	C132	0.824970	0.958210	0.385300
H811	H81	0.859300	0.946100	0.325000
C1331	C133	0.786790	0.906460	0.444200
C1341	C134	0.803250	0.832040	0.428100
C1351	C135	0.870640	0.749310	0.349200
H821	H82	0.906800	0.736300	0.297100
C1361	C136	0.835990	0.698440	0.418700
H831	H83	0.849500	0.651600	0.415000
C1371	C137	0.768150	0.780050	0.495100
H841	H84	0.731500	0.792600	0.545600
N461	N46	0.498760	0.847280	0.943300
C1381	C138	0.501430	0.816760	0.056900
N471	N47	0.427030	0.967160	0.751440
C1391	C139	0.430980	0.031460	0.692300
H851	H85	0.464600	0.042900	0.628700
N481	N48	0.337520	0.067920	0.804200
C1401	C140	0.387110	0.081440	0.721800
H861	H86	0.392600	0.126900	0.681900
N491	N49	0.263300	0.920420	0.974300
C1411	C141	0.332010	0.002700	0.857800
N501	N50	0.145460	0.816590	0.146700
C1421	C142	0.376800	0.952820	0.833000
H871	H87	0.371700	0.907600	0.874800
N511	N51	0.215850	0.713020	0.009200
C1431	C143	0.276210	0.987510	0.948000
N521	N52	0.069050	0.194130	0.215300
C1441	C144	0.240360	0.042470	0.999100
H881	H88	0.251300	0.089100	0.976600
C1451	C145	0.188150	0.027830	0.083700
C1461	C146	0.147360	0.085050	0.131800
C1471	C147	0.143330	0.145850	0.044800
H891	H89	0.167500	0.151400	0.955500
C1481	C148	0.103850	0.197930	0.089500
H901	H90	0.101200	0.238500	0.027900
C1491	C149	0.073270	0.136020	0.299100
H911	H91	0.049100	0.132500	0.389000
C1501	C150	0.111010	0.080670	0.261800
H921	H92	0.112000	0.040300	0.324300
C1511	C151	0.175030	0.958210	0.114700
H931	H93	0.140700	0.946100	0.175000
C1521	C152	0.213210	0.906460	0.055800
C1531	C153	0.196750	0.832040	0.071900
C1541	C154	0.129360	0.749310	0.150800
H941	H94	0.093200	0.736300	0.202900
C1551	C155	0.164010	0.698440	0.081300
H951	H95	0.150500	0.651600	0.085000
C1561	C156	0.231850	0.780050	0.004900
H961	H96	0.268500	0.792600	0.954400
Cu51	Cu5	0.000000	0.395020	0.750000
Cu61	Cu6	0.500000	0.895020	0.750000
Cu71	Cu7	0.000000	0.268540	0.250000
Cu81	Cu8	0.500000	0.768540	0.250000
