data_USISEW_clean_PM
_symmetry_space_group_name_H-M	'P1'
_cell_length_a	21.941500
_cell_length_b	19.270300
_cell_length_c	8.905000
_cell_angle_alpha	90.000000
_cell_angle_beta	90.000000
_cell_angle_gamma	90.000000
_symmetry_Int_Tables_number 1

loop_
_symmetry_equiv_pos_as_xyz
'x,y,z'

loop_
_atom_site_label
_atom_site_type_symbol
_atom_site_fract_x
_atom_site_fract_y
_atom_site_fract_z
C11	C1	0.499230	0.152990	0.443800
C21	C2	0.501170	0.180820	0.558600
N11	N1	0.425300	0.033870	0.256200
C31	C3	0.429580	0.970450	0.199000
H11	H1	0.462000	0.959900	0.135600
N21	N2	0.338030	0.931860	0.315700
C41	C4	0.386900	0.919700	0.231400
H21	H2	0.392600	0.875400	0.192700
N31	N3	0.264370	0.077180	0.487900
C51	C5	0.332340	0.996650	0.368500
N41	N4	0.146140	0.179710	0.656900
C61	C6	0.376120	0.046150	0.339700
H31	H3	0.371100	0.090200	0.380500
N51	N5	0.215400	0.282900	0.527800
C71	C7	0.276770	0.010280	0.460700
N61	N6	0.069830	0.803370	0.720200
C81	C8	0.241350	0.956530	0.509100
H41	H4	0.252000	0.911100	0.485500
C91	C9	0.189550	0.969550	0.593200
C101	C10	0.148100	0.911970	0.639800
C111	C11	0.141500	0.853800	0.551200
H51	H5	0.163500	0.849700	0.462400
C121	C12	0.102700	0.802400	0.593800
H61	H6	0.098800	0.764100	0.531000
C131	C13	0.076840	0.859000	0.802900
H71	H7	0.054600	0.861600	0.891600
C141	C14	0.114300	0.913200	0.769100
H81	H8	0.116800	0.951000	0.833700
C151	C15	0.176870	0.038810	0.625600
H91	H9	0.143400	0.050200	0.684700
C161	C16	0.214360	0.090710	0.569200
C171	C17	0.198160	0.165070	0.588300
C181	C18	0.130000	0.246700	0.662700
H101	H10	0.094400	0.259000	0.713100
C191	C19	0.163700	0.296400	0.597700
H111	H11	0.150100	0.342000	0.602100
C201	C20	0.231600	0.216800	0.525000
H121	H12	0.267900	0.205000	0.477100
N71	N7	0.500770	0.152990	0.056200
C211	C21	0.498830	0.180820	0.941400
N81	N8	0.574700	0.033870	0.243800
C221	C22	0.570420	0.970450	0.301000
H131	H13	0.538000	0.959900	0.364400
N91	N9	0.661970	0.931860	0.184300
C231	C23	0.613100	0.919700	0.268600
H141	H14	0.607400	0.875400	0.307300
N101	N10	0.735630	0.077180	0.012100
C241	C24	0.667660	0.996650	0.131500
N111	N11	0.853860	0.179710	0.843100
C251	C25	0.623880	0.046150	0.160300
H151	H15	0.628900	0.090200	0.119500
N121	N12	0.784600	0.282900	0.972200
C261	C26	0.723230	0.010280	0.039300
N131	N13	0.930170	0.803370	0.779800
C271	C27	0.758650	0.956530	0.990900
H161	H16	0.748000	0.911100	0.014500
C281	C28	0.810450	0.969550	0.906800
C291	C29	0.851900	0.911970	0.860200
C301	C30	0.858500	0.853800	0.948800
H171	H17	0.836500	0.849700	0.037600
C311	C31	0.897300	0.802400	0.906200
H181	H18	0.901200	0.764100	0.969000
C321	C32	0.923160	0.859000	0.697100
H191	H19	0.945400	0.861600	0.608400
C331	C33	0.885700	0.913200	0.730900
H201	H20	0.883200	0.951000	0.666300
C341	C34	0.823130	0.038810	0.874400
H211	H21	0.856600	0.050200	0.815300
C351	C35	0.785640	0.090710	0.930800
C361	C36	0.801840	0.165070	0.911700
C371	C37	0.870000	0.246700	0.837300
H221	H22	0.905600	0.259000	0.786900
C381	C38	0.836300	0.296400	0.902300
H231	H23	0.849900	0.342000	0.897900
C391	C39	0.768400	0.216800	0.975000
H241	H24	0.732100	0.205000	0.022900
C401	C40	0.999230	0.652990	0.056200
C411	C41	0.001170	0.680820	0.941400
N141	N14	0.925300	0.533870	0.243800
C421	C42	0.929580	0.470450	0.301000
H251	H25	0.962000	0.459900	0.364400
N151	N15	0.838030	0.431860	0.184300
C431	C43	0.886900	0.419700	0.268600
H261	H26	0.892600	0.375400	0.307300
N161	N16	0.764370	0.577180	0.012100
C441	C44	0.832340	0.496650	0.131500
N171	N17	0.646140	0.679710	0.843100
C451	C45	0.876120	0.546150	0.160300
H271	H27	0.871100	0.590200	0.119500
N181	N18	0.715400	0.782900	0.972200
C461	C46	0.776770	0.510280	0.039300
N191	N19	0.569830	0.303370	0.779800
C471	C47	0.741350	0.456530	0.990900
H281	H28	0.752000	0.411100	0.014500
C481	C48	0.689550	0.469550	0.906800
C491	C49	0.648100	0.411970	0.860200
C501	C50	0.641500	0.353800	0.948800
H291	H29	0.663500	0.349700	0.037600
C511	C51	0.602700	0.302400	0.906200
H301	H30	0.598800	0.264100	0.969000
C521	C52	0.576840	0.359000	0.697100
H311	H31	0.554600	0.361600	0.608400
C531	C53	0.614300	0.413200	0.730900
H321	H32	0.616800	0.451000	0.666300
C541	C54	0.676870	0.538810	0.874400
H331	H33	0.643400	0.550200	0.815300
C551	C55	0.714360	0.590710	0.930800
C561	C56	0.698160	0.665070	0.911700
C571	C57	0.630000	0.746700	0.837300
H341	H34	0.594400	0.759000	0.786900
C581	C58	0.663700	0.796400	0.902300
H351	H35	0.650100	0.842000	0.897900
C591	C59	0.731600	0.716800	0.975000
H361	H36	0.767900	0.705000	0.022900
N201	N20	0.000770	0.652990	0.443800
C601	C60	0.998830	0.680820	0.558600
N211	N21	0.074700	0.533870	0.256200
C611	C61	0.070420	0.470450	0.199000
H371	H37	0.038000	0.459900	0.135600
N221	N22	0.161970	0.431860	0.315700
C621	C62	0.113100	0.419700	0.231400
H381	H38	0.107400	0.375400	0.192700
N231	N23	0.235630	0.577180	0.487900
C631	C63	0.167660	0.496650	0.368500
N241	N24	0.353860	0.679710	0.656900
C641	C64	0.123880	0.546150	0.339700
H391	H39	0.128900	0.590200	0.380500
N251	N25	0.284600	0.782900	0.527800
C651	C65	0.223230	0.510280	0.460700
N261	N26	0.430170	0.303370	0.720200
C661	C66	0.258650	0.456530	0.509100
H401	H40	0.248000	0.411100	0.485500
C671	C67	0.310450	0.469550	0.593200
C681	C68	0.351900	0.411970	0.639800
C691	C69	0.358500	0.353800	0.551200
H411	H41	0.336500	0.349700	0.462400
C701	C70	0.397300	0.302400	0.593800
H421	H42	0.401200	0.264100	0.531000
C711	C71	0.423160	0.359000	0.802900
H431	H43	0.445400	0.361600	0.891600
C721	C72	0.385700	0.413200	0.769100
H441	H44	0.383200	0.451000	0.833700
C731	C73	0.323130	0.538810	0.625600
H451	H45	0.356600	0.550200	0.684700
C741	C74	0.285640	0.590710	0.569200
C751	C75	0.301840	0.665070	0.588300
C761	C76	0.370000	0.746700	0.662700
H461	H46	0.405600	0.759000	0.713100
C771	C77	0.336300	0.796400	0.597700
H471	H47	0.349900	0.842000	0.602100
C781	C78	0.268400	0.716800	0.525000
H481	H48	0.232100	0.705000	0.477100
Cu11	Cu1	0.500000	0.109180	0.250000
Cu21	Cu2	0.000000	0.609180	0.250000
Cu31	Cu3	0.500000	0.226320	0.750000
Cu41	Cu4	0.000000	0.726320	0.750000
C791	C79	0.000770	0.347010	0.943800
C801	C80	0.998830	0.319180	0.058600
N271	N27	0.074700	0.466130	0.756200
C811	C81	0.070420	0.529550	0.699000
H491	H49	0.038000	0.540100	0.635600
N281	N28	0.161970	0.568140	0.815700
C821	C82	0.113100	0.580300	0.731400
H501	H50	0.107400	0.624600	0.692700
N291	N29	0.235630	0.422820	0.987900
C831	C83	0.167660	0.503350	0.868500
N301	N30	0.353860	0.320290	0.156900
C841	C84	0.123880	0.453850	0.839700
H511	H51	0.128900	0.409800	0.880500
N311	N31	0.284600	0.217100	0.027800
C851	C85	0.223230	0.489720	0.960700
N321	N32	0.430170	0.696630	0.220200
C861	C86	0.258650	0.543470	0.009100
H521	H52	0.248000	0.588900	0.985500
C871	C87	0.310450	0.530450	0.093200
C881	C88	0.351900	0.588030	0.139800
C891	C89	0.358500	0.646200	0.051200
H531	H53	0.336500	0.650300	0.962400
C901	C90	0.397300	0.697600	0.093800
H541	H54	0.401200	0.735900	0.031000
C911	C91	0.423160	0.641000	0.302900
H551	H55	0.445400	0.638400	0.391600
C921	C92	0.385700	0.586800	0.269100
H561	H56	0.383200	0.549000	0.333700
C931	C93	0.323130	0.461190	0.125600
H571	H57	0.356600	0.449800	0.184700
C941	C94	0.285640	0.409290	0.069200
C951	C95	0.301840	0.334930	0.088300
C961	C96	0.370000	0.253300	0.162700
H581	H58	0.405600	0.241000	0.213100
C971	C97	0.336300	0.203600	0.097700
H591	H59	0.349900	0.158000	0.102100
C981	C98	0.268400	0.283200	0.025000
H601	H60	0.232100	0.295000	0.977100
N331	N33	0.999230	0.347010	0.556200
C991	C99	0.001170	0.319180	0.441400
N341	N34	0.925300	0.466130	0.743800
C1001	C100	0.929580	0.529550	0.801000
H611	H61	0.962000	0.540100	0.864400
N351	N35	0.838030	0.568140	0.684300
C1011	C101	0.886900	0.580300	0.768600
H621	H62	0.892600	0.624600	0.807300
N361	N36	0.764370	0.422820	0.512100
C1021	C102	0.832340	0.503350	0.631500
N371	N37	0.646140	0.320290	0.343100
C1031	C103	0.876120	0.453850	0.660300
H631	H63	0.871100	0.409800	0.619500
N381	N38	0.715400	0.217100	0.472200
C1041	C104	0.776770	0.489720	0.539300
N391	N39	0.569830	0.696630	0.279800
C1051	C105	0.741350	0.543470	0.490900
H641	H64	0.752000	0.588900	0.514500
C1061	C106	0.689550	0.530450	0.406800
C1071	C107	0.648100	0.588030	0.360200
C1081	C108	0.641500	0.646200	0.448800
H651	H65	0.663500	0.650300	0.537600
C1091	C109	0.602700	0.697600	0.406200
H661	H66	0.598800	0.735900	0.469000
C1101	C110	0.576840	0.641000	0.197100
H671	H67	0.554600	0.638400	0.108400
C1111	C111	0.614300	0.586800	0.230900
H681	H68	0.616800	0.549000	0.166300
C1121	C112	0.676870	0.461190	0.374400
H691	H69	0.643400	0.449800	0.315300
C1131	C113	0.714360	0.409290	0.430800
C1141	C114	0.698160	0.334930	0.411700
C1151	C115	0.630000	0.253300	0.337300
H701	H70	0.594400	0.241000	0.286900
C1161	C116	0.663700	0.203600	0.402300
H711	H71	0.650100	0.158000	0.397900
C1171	C117	0.731600	0.283200	0.475000
H721	H72	0.767900	0.295000	0.522900
C1181	C118	0.500770	0.847010	0.556200
C1191	C119	0.498830	0.819180	0.441400
N401	N40	0.574700	0.966130	0.743800
C1201	C120	0.570420	0.029550	0.801000
H731	H73	0.538000	0.040100	0.864400
N411	N41	0.661970	0.068140	0.684300
C1211	C121	0.613100	0.080300	0.768600
H741	H74	0.607400	0.124600	0.807300
N421	N42	0.735630	0.922820	0.512100
C1221	C122	0.667660	0.003350	0.631500
N431	N43	0.853860	0.820290	0.343100
C1231	C123	0.623880	0.953850	0.660300
H751	H75	0.628900	0.909800	0.619500
N441	N44	0.784600	0.717100	0.472200
C1241	C124	0.723230	0.989720	0.539300
N451	N45	0.930170	0.196630	0.279800
C1251	C125	0.758650	0.043470	0.490900
H761	H76	0.748000	0.088900	0.514500
C1261	C126	0.810450	0.030450	0.406800
C1271	C127	0.851900	0.088030	0.360200
C1281	C128	0.858500	0.146200	0.448800
H771	H77	0.836500	0.150300	0.537600
C1291	C129	0.897300	0.197600	0.406200
H781	H78	0.901200	0.235900	0.469000
C1301	C130	0.923160	0.141000	0.197100
H791	H79	0.945400	0.138400	0.108400
C1311	C131	0.885700	0.086800	0.230900
H801	H80	0.883200	0.049000	0.166300
C1321	C132	0.823130	0.961190	0.374400
H811	H81	0.856600	0.949800	0.315300
C1331	C133	0.785640	0.909290	0.430800
C1341	C134	0.801840	0.834930	0.411700
C1351	C135	0.870000	0.753300	0.337300
H821	H82	0.905600	0.741000	0.286900
C1361	C136	0.836300	0.703600	0.402300
H831	H83	0.849900	0.658000	0.397900
C1371	C137	0.768400	0.783200	0.475000
H841	H84	0.732100	0.795000	0.522900
N461	N46	0.499230	0.847010	0.943800
C1381	C138	0.501170	0.819180	0.058600
N471	N47	0.425300	0.966130	0.756200
C1391	C139	0.429580	0.029550	0.699000
H851	H85	0.462000	0.040100	0.635600
N481	N48	0.338030	0.068140	0.815700
C1401	C140	0.386900	0.080300	0.731400
H861	H86	0.392600	0.124600	0.692700
N491	N49	0.264370	0.922820	0.987900
C1411	C141	0.332340	0.003350	0.868500
N501	N50	0.146140	0.820290	0.156900
C1421	C142	0.376120	0.953850	0.839700
H871	H87	0.371100	0.909800	0.880500
N511	N51	0.215400	0.717100	0.027800
C1431	C143	0.276770	0.989720	0.960700
N521	N52	0.069830	0.196630	0.220200
C1441	C144	0.241350	0.043470	0.009100
H881	H88	0.252000	0.088900	0.985500
C1451	C145	0.189550	0.030450	0.093200
C1461	C146	0.148100	0.088030	0.139800
C1471	C147	0.141500	0.146200	0.051200
H891	H89	0.163500	0.150300	0.962400
C1481	C148	0.102700	0.197600	0.093800
H901	H90	0.098800	0.235900	0.031000
C1491	C149	0.076840	0.141000	0.302900
H911	H91	0.054600	0.138400	0.391600
C1501	C150	0.114300	0.086800	0.269100
H921	H92	0.116800	0.049000	0.333700
C1511	C151	0.176870	0.961190	0.125600
H931	H93	0.143400	0.949800	0.184700
C1521	C152	0.214360	0.909290	0.069200
C1531	C153	0.198160	0.834930	0.088300
C1541	C154	0.130000	0.753300	0.162700
H941	H94	0.094400	0.741000	0.213100
C1551	C155	0.163700	0.703600	0.097700
H951	H95	0.150100	0.658000	0.102100
C1561	C156	0.231600	0.783200	0.025000
H961	H96	0.267900	0.795000	0.977100
Cu51	Cu5	0.000000	0.390820	0.750000
Cu61	Cu6	0.500000	0.890820	0.750000
Cu71	Cu7	0.000000	0.273680	0.250000
Cu81	Cu8	0.500000	0.773680	0.250000
