data_USOXEH_clean_PM
_symmetry_space_group_name_H-M	'P1'
_cell_length_a	11.946000
_cell_length_b	13.302000
_cell_length_c	17.777000
_cell_angle_alpha	90.000000
_cell_angle_beta	98.350000
_cell_angle_gamma	90.000000
_symmetry_Int_Tables_number 1

loop_
_symmetry_equiv_pos_as_xyz
'x,y,z'

loop_
_atom_site_label
_atom_site_type_symbol
_atom_site_fract_x
_atom_site_fract_y
_atom_site_fract_z
Zn11	Zn1	0.672460	0.540850	0.203040
Cu11	Cu1	0.041360	0.677030	0.442840
N11	N1	0.653900	0.425400	0.132600
N21	N2	0.566400	0.289500	0.075400
N31	N3	0.563000	0.526200	0.276700
N41	N4	0.497400	0.511800	0.388000
N51	N5	0.826100	0.553600	0.263200
N61	N6	0.967000	0.608200	0.349400
N71	N7	0.159300	0.571200	0.458000
N81	N8	0.333000	0.508000	0.484400
N91	N9	0.092900	0.727700	0.547400
N101	N10	0.143300	0.833900	0.643100
C11	C1	0.576400	0.354200	0.133500
H11	H1	0.531900	0.349600	0.172100
C21	C2	0.697100	0.406100	0.068300
H21	H2	0.753900	0.442700	0.050200
C31	C3	0.643800	0.324200	0.034100
H31	H3	0.658900	0.296200	0.988700
C41	C4	0.586100	0.515300	0.350400
H41	H4	0.660000	0.510200	0.375100
C51	C5	0.449200	0.525900	0.264100
H51	H5	0.405200	0.531800	0.216600
C61	C6	0.408400	0.516000	0.330200
H61	H6	0.332300	0.512500	0.335900
C71	C7	0.855500	0.609100	0.325100
H71	H7	0.803900	0.644800	0.349100
C81	C8	0.924200	0.515600	0.246900
H81	H8	0.931700	0.474100	0.205800
C91	C9	0.010300	0.547200	0.299600
H91	H9	0.086100	0.530000	0.301300
C101	C10	0.269300	0.589300	0.474200
H101	H10	0.299100	0.654000	0.478000
C111	C11	0.151400	0.469600	0.458400
H111	H11	0.084700	0.432700	0.449300
C121	C12	0.257300	0.430700	0.474300
H121	H12	0.275200	0.362600	0.477800
C131	C13	0.102600	0.822600	0.570400
H131	H13	0.082500	0.876700	0.538000
C141	C14	0.129800	0.673500	0.611300
H141	H14	0.134000	0.603700	0.614300
C151	C15	0.158900	0.737500	0.668800
H151	H15	0.185500	0.719200	0.718700
Zn21	Zn2	0.827540	0.040850	0.296960
Cu21	Cu2	0.458640	0.177030	0.057160
N111	N11	0.846100	0.925400	0.367400
N121	N12	0.933600	0.789500	0.424600
N131	N13	0.937000	0.026200	0.223300
N141	N14	0.002600	0.011800	0.112000
N151	N15	0.673900	0.053600	0.236800
N161	N16	0.533000	0.108200	0.150600
N171	N17	0.340700	0.071200	0.042000
N181	N18	0.167000	0.008000	0.015600
N191	N19	0.407100	0.227700	0.952600
N201	N20	0.356700	0.333900	0.856900
C161	C16	0.923600	0.854200	0.366500
H161	H16	0.968100	0.849600	0.327900
C171	C17	0.802900	0.906100	0.431700
H171	H17	0.746100	0.942700	0.449800
C181	C18	0.856200	0.824200	0.465900
H181	H18	0.841100	0.796200	0.511300
C191	C19	0.913900	0.015300	0.149600
H191	H19	0.840000	0.010200	0.124900
C201	C20	0.050800	0.025900	0.235900
H201	H20	0.094800	0.031800	0.283400
C211	C21	0.091600	0.016000	0.169800
H211	H21	0.167700	0.012500	0.164100
C221	C22	0.644500	0.109100	0.174900
H221	H22	0.696100	0.144800	0.150900
C231	C23	0.575800	0.015600	0.253100
H231	H23	0.568300	0.974100	0.294200
C241	C24	0.489700	0.047200	0.200400
H241	H24	0.413900	0.030000	0.198700
C251	C25	0.230700	0.089300	0.025800
H251	H25	0.200900	0.154000	0.022000
C261	C26	0.348600	0.969600	0.041600
H261	H26	0.415300	0.932700	0.050700
C271	C27	0.242700	0.930700	0.025700
H271	H27	0.224800	0.862600	0.022200
C281	C28	0.397400	0.322600	0.929600
H281	H28	0.417500	0.376700	0.962000
C291	C29	0.370200	0.173500	0.888700
H291	H29	0.366000	0.103700	0.885700
C301	C30	0.341100	0.237500	0.831200
H301	H30	0.314500	0.219200	0.781300
Zn31	Zn3	0.327540	0.459150	0.796960
Cu31	Cu3	0.958640	0.322970	0.557160
N211	N21	0.346100	0.574600	0.867400
N221	N22	0.433600	0.710500	0.924600
N231	N23	0.437000	0.473800	0.723300
N241	N24	0.502600	0.488200	0.612000
N251	N25	0.173900	0.446400	0.736800
N261	N26	0.033000	0.391800	0.650600
N271	N27	0.840700	0.428800	0.542000
N281	N28	0.667000	0.492000	0.515600
N291	N29	0.907100	0.272300	0.452600
N301	N30	0.856700	0.166100	0.356900
C311	C31	0.423600	0.645800	0.866500
H311	H31	0.468100	0.650400	0.827900
C321	C32	0.302900	0.593900	0.931700
H321	H32	0.246100	0.557300	0.949800
C331	C33	0.356200	0.675800	0.965900
H331	H33	0.341100	0.703800	0.011300
C341	C34	0.413900	0.484700	0.649600
H341	H34	0.340000	0.489800	0.624900
C351	C35	0.550800	0.474100	0.735900
H351	H35	0.594800	0.468200	0.783400
C361	C36	0.591600	0.484000	0.669800
H361	H36	0.667700	0.487500	0.664100
C371	C37	0.144500	0.390900	0.674900
H371	H37	0.196100	0.355200	0.650900
C381	C38	0.075800	0.484400	0.753100
H381	H38	0.068300	0.525900	0.794200
C391	C39	0.989700	0.452800	0.700400
H391	H39	0.913900	0.470000	0.698700
C401	C40	0.730700	0.410700	0.525800
H401	H40	0.700900	0.346000	0.522000
C411	C41	0.848600	0.530400	0.541600
H411	H41	0.915300	0.567300	0.550700
C421	C42	0.742700	0.569300	0.525700
H421	H42	0.724800	0.637400	0.522200
C431	C43	0.897400	0.177400	0.429600
H431	H43	0.917500	0.123300	0.462000
C441	C44	0.870200	0.326500	0.388700
H441	H44	0.866000	0.396300	0.385700
C451	C45	0.841100	0.262500	0.331200
H451	H45	0.814500	0.280800	0.281300
Zn41	Zn4	0.172460	0.959150	0.703040
Cu41	Cu4	0.541360	0.822970	0.942840
N311	N31	0.153900	0.074600	0.632600
N321	N32	0.066400	0.210500	0.575400
N331	N33	0.063000	0.973800	0.776700
N341	N34	0.997400	0.988200	0.888000
N351	N35	0.326100	0.946400	0.763200
N361	N36	0.467000	0.891800	0.849400
N371	N37	0.659300	0.928800	0.958000
N381	N38	0.833000	0.992000	0.984400
N391	N39	0.592900	0.772300	0.047400
N401	N40	0.643300	0.666100	0.143100
C461	C46	0.076400	0.145800	0.633500
H461	H46	0.031900	0.150400	0.672100
C471	C47	0.197100	0.093900	0.568300
H471	H47	0.253900	0.057300	0.550200
C481	C48	0.143800	0.175800	0.534100
H481	H48	0.158900	0.203800	0.488700
C491	C49	0.086100	0.984700	0.850400
H491	H49	0.160000	0.989800	0.875100
C501	C50	0.949200	0.974100	0.764100
H501	H50	0.905200	0.968200	0.716600
C511	C51	0.908400	0.984000	0.830200
H511	H51	0.832300	0.987500	0.835900
C521	C52	0.355500	0.890900	0.825100
H521	H52	0.303900	0.855200	0.849100
C531	C53	0.424200	0.984400	0.746900
H531	H53	0.431700	0.025900	0.705800
C541	C54	0.510300	0.952800	0.799600
H541	H54	0.586100	0.970000	0.801300
C551	C55	0.769300	0.910700	0.974200
H551	H55	0.799100	0.846000	0.978000
C561	C56	0.651400	0.030400	0.958400
H561	H56	0.584700	0.067300	0.949300
C571	C57	0.757300	0.069300	0.974300
H571	H57	0.775200	0.137400	0.977800
C581	C58	0.602600	0.677400	0.070400
H581	H58	0.582500	0.623300	0.038000
C591	C59	0.629800	0.826500	0.111300
H591	H59	0.634000	0.896300	0.114300
C601	C60	0.658900	0.762500	0.168800
H601	H60	0.685500	0.780800	0.218700
Cu51	Cu5	0.500000	0.500000	0.500000
Cu61	Cu6	0.000000	0.000000	0.000000
