data_USUBUG_clean_PM
_symmetry_space_group_name_H-M	'P1'
_cell_length_a	8.959000
_cell_length_b	10.069200
_cell_length_c	10.120500
_cell_angle_alpha	119.750000
_cell_angle_beta	116.182000
_cell_angle_gamma	90.161100
_symmetry_Int_Tables_number 1

loop_
_symmetry_equiv_pos_as_xyz
'x,y,z'

loop_
_atom_site_label
_atom_site_type_symbol
_atom_site_fract_x
_atom_site_fract_y
_atom_site_fract_z
Zn11	Zn1	0.169370	0.836020	0.274340
Zn21	Zn2	0.395030	0.561680	0.725660
H11	H1	0.500400	0.107900	0.657600
H21	H2	0.546700	0.284900	0.774800
H31	H3	0.705800	0.870500	0.897400
H41	H4	0.887800	0.946800	0.049200
H51	H5	0.342800	0.450300	0.342400
H61	H6	0.271900	0.510100	0.225200
H71	H7	0.308400	0.973100	0.102600
H81	H8	0.338600	0.897600	0.950800
C11	C1	0.341400	0.198000	0.544600
C21	C2	0.783000	0.750600	0.000600
C31	C3	0.296800	0.653400	0.455400
C41	C4	0.282400	0.750000	0.999400
N11	N1	0.479800	0.196800	0.675000
N21	N2	0.309100	0.330100	0.548200
N31	N3	0.178400	0.276100	0.382800
N41	N4	0.129700	0.124700	0.291600
N51	N5	0.232000	0.069500	0.387800
N61	N6	0.793400	0.870000	0.980000
N71	N7	0.912900	0.739200	0.122000
N81	N8	0.846700	0.603800	0.106600
N91	N9	0.692400	0.536900	0.974800
N101	N10	0.645900	0.625200	0.903600
N111	N11	0.304800	0.521800	0.325000
N121	N12	0.260900	0.781900	0.451800
N131	N13	0.295600	0.893300	0.617200
N141	N14	0.338100	0.833100	0.708400
N151	N15	0.344200	0.681700	0.612200
N161	N16	0.313400	0.890000	0.020000
N171	N17	0.290900	0.617200	0.878000
N181	N18	0.240100	0.497200	0.893400
N191	N19	0.217600	0.562100	0.025200
N201	N20	0.242300	0.721600	0.096400
