data_USUPUV_clean_PM
_symmetry_space_group_name_H-M	'P1'
_cell_length_a	9.812000
_cell_length_b	25.793000
_cell_length_c	11.777000
_cell_angle_alpha	90.000000
_cell_angle_beta	104.680000
_cell_angle_gamma	90.000000
_symmetry_Int_Tables_number 1

loop_
_symmetry_equiv_pos_as_xyz
'x,y,z'

loop_
_atom_site_label
_atom_site_type_symbol
_atom_site_fract_x
_atom_site_fract_y
_atom_site_fract_z
Y11	Y1	0.205670	0.101550	0.297930
Fe11	Fe1	0.320220	0.894220	0.338050
O11	O1	0.509700	0.905200	0.198800
N11	N1	0.433800	0.899500	0.254700
N21	N2	0.267700	0.011500	0.337600
N31	N3	0.561400	0.896000	0.564100
N41	N4	0.308500	0.774400	0.340000
N51	N5	0.056900	0.886800	0.133600
C11	C1	0.291000	0.967700	0.340400
C21	C2	0.468400	0.895800	0.482500
C31	C3	0.317400	0.818600	0.342100
C41	C4	0.155500	0.890100	0.210400
N61	N6	0.021600	0.169200	0.271800
C51	C5	0.968100	0.202000	0.312900
Rb11	Rb1	0.544500	0.722780	0.514810
Fe21	Fe2	0.112290	0.744740	0.611090
O21	O2	0.017800	0.786900	0.387700
N71	N7	0.061700	0.771400	0.478700
N81	N8	0.245100	0.650900	0.517800
N91	N9	0.834200	0.684100	0.551700
C61	C6	0.196300	0.684800	0.555200
C71	C7	0.936400	0.706500	0.578300
N101	N10	0.107400	0.893600	0.491100
C81	C8	0.189000	0.892900	0.435800
N111	N11	0.408100	0.794400	0.685500
C91	C9	0.299100	0.776900	0.659300
N121	N12	0.684300	0.808800	0.353200
C101	C10	0.659000	0.788900	0.264400
Y21	Y2	0.294330	0.601550	0.202070
Fe31	Fe3	0.179780	0.394220	0.161950
O31	O3	0.990300	0.405200	0.301200
N131	N13	0.066200	0.399500	0.245300
N141	N14	0.232300	0.511500	0.162400
N151	N15	0.938600	0.396000	0.935900
N161	N16	0.191500	0.274400	0.160000
N171	N17	0.443100	0.386800	0.366400
C111	C11	0.209000	0.467700	0.159600
C121	C12	0.031600	0.395800	0.017500
C131	C13	0.182600	0.318600	0.157900
C141	C14	0.344500	0.390100	0.289600
N181	N18	0.478400	0.669200	0.228200
C151	C15	0.531900	0.702000	0.187100
Rb21	Rb2	0.955500	0.222780	0.985190
Fe41	Fe4	0.387710	0.244740	0.888910
O41	O4	0.482200	0.286900	0.112300
N191	N19	0.438300	0.271400	0.021300
N201	N20	0.254900	0.150900	0.982200
N211	N21	0.665800	0.184100	0.948300
C161	C16	0.303700	0.184800	0.944800
C171	C17	0.563600	0.206500	0.921700
N221	N22	0.392600	0.393600	0.008900
C181	C18	0.311000	0.392900	0.064200
N231	N23	0.091900	0.294400	0.814500
C191	C19	0.200900	0.276900	0.840700
N241	N24	0.815700	0.308800	0.146800
C201	C20	0.841000	0.288900	0.235600
Y31	Y3	0.794330	0.898450	0.702070
Fe51	Fe5	0.679780	0.105780	0.661950
O51	O5	0.490300	0.094800	0.801200
N251	N25	0.566200	0.100500	0.745300
N261	N26	0.732300	0.988500	0.662400
N271	N27	0.438600	0.104000	0.435900
N281	N28	0.691500	0.225600	0.660000
N291	N29	0.943100	0.113200	0.866400
C211	C21	0.709000	0.032300	0.659600
C221	C22	0.531600	0.104200	0.517500
C231	C23	0.682600	0.181400	0.657900
C241	C24	0.844500	0.109900	0.789600
N301	N30	0.978400	0.830800	0.728200
C251	C25	0.031900	0.798000	0.687100
Rb31	Rb3	0.455500	0.277220	0.485190
Fe61	Fe6	0.887710	0.255260	0.388910
O61	O6	0.982200	0.213100	0.612300
N311	N31	0.938300	0.228600	0.521300
N321	N32	0.754900	0.349100	0.482200
N331	N33	0.165800	0.315900	0.448300
C261	C26	0.803700	0.315200	0.444800
C271	C27	0.063600	0.293500	0.421700
N341	N34	0.892600	0.106400	0.508900
C281	C28	0.811000	0.107100	0.564200
N351	N35	0.591900	0.205600	0.314500
C291	C29	0.700900	0.223100	0.340700
N361	N36	0.315700	0.191200	0.646800
C301	C30	0.341000	0.211100	0.735600
Y41	Y4	0.705670	0.398450	0.797930
Fe71	Fe7	0.820220	0.605780	0.838050
O71	O7	0.009700	0.594800	0.698800
N371	N37	0.933800	0.600500	0.754700
N381	N38	0.767700	0.488500	0.837600
N391	N39	0.061400	0.604000	0.064100
N401	N40	0.808500	0.725600	0.840000
N411	N41	0.556900	0.613200	0.633600
C311	C31	0.791000	0.532300	0.840400
C321	C32	0.968400	0.604200	0.982500
C331	C33	0.817400	0.681400	0.842100
C341	C34	0.655500	0.609900	0.710400
N421	N42	0.521600	0.330800	0.771800
C351	C35	0.468100	0.298000	0.812900
Rb41	Rb4	0.044500	0.777220	0.014810
Fe81	Fe8	0.612290	0.755260	0.111090
O81	O8	0.517800	0.713100	0.887700
N431	N43	0.561700	0.728600	0.978700
N441	N44	0.745100	0.849100	0.017800
N451	N45	0.334200	0.815900	0.051700
C361	C36	0.696300	0.815200	0.055200
C371	C37	0.436400	0.793500	0.078300
N461	N46	0.607400	0.606400	0.991100
C381	C38	0.689000	0.607100	0.935800
N471	N47	0.908100	0.705600	0.185500
C391	C39	0.799100	0.723100	0.159300
N481	N48	0.184300	0.691200	0.853200
C401	C40	0.159000	0.711100	0.764400
