data_USUVIP_clean_PM
_symmetry_space_group_name_H-M	'P1'
_cell_length_a	14.761000
_cell_length_b	15.739000
_cell_length_c	15.988000
_cell_angle_alpha	100.514000
_cell_angle_beta	111.588000
_cell_angle_gamma	106.821000
_symmetry_Int_Tables_number 1

loop_
_symmetry_equiv_pos_as_xyz
'x,y,z'

loop_
_atom_site_label
_atom_site_type_symbol
_atom_site_fract_x
_atom_site_fract_y
_atom_site_fract_z
Cd11	Cd1	0.627740	0.775080	0.804970
Cd21	Cd2	0.782350	0.767690	0.063280
Cd31	Cd3	0.694250	0.580490	0.821890
C11	C1	0.872900	0.826600	0.255800
C21	C2	0.926400	0.854700	0.364400
C31	C3	0.031900	0.880100	0.414000
H11	H1	0.073700	0.883500	0.382100
C41	C4	0.078400	0.901300	0.511700
H21	H2	0.150900	0.917500	0.544700
C51	C5	0.018700	0.898500	0.560500
C61	C6	0.910400	0.877200	0.509600
H31	H3	0.869500	0.878500	0.542100
C71	C7	0.863500	0.854400	0.411600
H41	H4	0.791400	0.839200	0.377800
C81	C8	0.068000	0.922400	0.666800
H51	H5	0.140000	0.925600	0.689700
H61	H6	0.070800	0.983600	0.695400
C91	C9	0.003400	0.757100	0.659700
H71	H7	0.964500	0.734800	0.590800
H81	H8	0.964600	0.715100	0.683400
C101	C10	0.109900	0.752400	0.686900
C111	C11	0.148200	0.743700	0.619000
H91	H9	0.104400	0.735100	0.556200
C121	C12	0.249800	0.747500	0.643100
H101	H10	0.272500	0.738900	0.596300
C131	C13	0.317400	0.764000	0.736300
C141	C14	0.279700	0.771200	0.805400
H111	H11	0.323500	0.779600	0.868000
C151	C15	0.177600	0.765800	0.779600
H121	H12	0.153700	0.771400	0.825800
C161	C16	0.431300	0.774000	0.765100
C171	C17	0.028500	0.880300	0.793300
C181	C18	0.954300	0.829600	0.819400
H131	H13	0.893000	0.779800	0.773100
C191	C19	0.970800	0.852300	0.912400
C201	C20	0.062700	0.926000	0.982600
H141	H14	0.075900	0.939000	0.046100
C211	C21	0.134700	0.980000	0.957200
C221	C22	0.116700	0.957200	0.863100
H151	H15	0.164500	0.994000	0.846300
C231	C23	0.888400	0.800300	0.938000
C241	C24	0.228200	0.065700	0.030600
C251	C25	0.666500	0.629700	0.575100
C261	C26	0.650800	0.536600	0.557900
H161	H16	0.618100	0.502400	0.587900
C271	C27	0.682300	0.491900	0.496800
H171	H17	0.671400	0.428900	0.486600
C281	C28	0.730800	0.543000	0.450900
C291	C29	0.739100	0.634200	0.462100
H181	H18	0.766100	0.667300	0.428200
C301	C30	0.707200	0.677200	0.524400
H191	H19	0.713600	0.739000	0.531700
C311	C31	0.643500	0.678900	0.649400
C321	C32	0.778400	0.496400	0.394700
H201	H20	0.842900	0.494600	0.439500
H211	H21	0.729200	0.432000	0.358100
C331	C33	0.906700	0.614700	0.366300
H221	H22	0.926000	0.675200	0.404600
C341	C34	0.982500	0.584700	0.337800
C351	C35	0.962100	0.492500	0.297000
H231	H23	0.901000	0.446200	0.289300
C361	C36	0.030300	0.465800	0.266700
H241	H24	0.014100	0.402800	0.238300
C371	C37	0.124200	0.536000	0.279800
C381	C38	0.146600	0.628400	0.323000
H251	H25	0.209000	0.674800	0.333300
C391	C39	0.077100	0.653200	0.351400
H261	H26	0.093400	0.716100	0.380000
C401	C40	0.194300	0.503600	0.244100
C411	C41	0.731400	0.515300	0.235900
C421	C42	0.761100	0.547100	0.168600
H271	H27	0.828600	0.591900	0.189000
C431	C43	0.691100	0.512500	0.073600
C441	C44	0.588200	0.446300	0.040400
H281	H28	0.542300	0.421100	0.975800
C451	C45	0.556000	0.418800	0.106800
C461	C46	0.625800	0.453300	0.202500
H291	H29	0.602600	0.435300	0.245700
C471	C47	0.443500	0.355100	0.072000
C481	C48	0.722100	0.546400	0.002400
O11	O1	0.929100	0.826000	0.215300
O21	O2	0.780200	0.806600	0.212500
O31	O3	0.492100	0.797000	0.848800
O41	O4	0.457000	0.755800	0.701700
O51	O5	0.797600	0.745700	0.873100
O61	O6	0.913900	0.818300	0.025500
O71	O7	0.276200	0.126600	0.004300
O81	O8	0.256300	0.073400	0.117400
O91	O9	0.658100	0.763700	0.664700
O101	O10	0.612900	0.633700	0.698500
O111	O11	0.283000	0.567300	0.266000
O121	O12	0.167200	0.424700	0.200400
O131	O13	0.389600	0.313700	0.985900
O141	O14	0.408500	0.347900	0.133800
O151	O15	0.666300	0.497500	0.916500
O161	O16	0.798800	0.623600	0.029800
N11	N1	0.007800	0.852400	0.696300
N21	N2	0.802700	0.543300	0.330100
Cd41	Cd4	0.372260	0.224920	0.195030
Cd51	Cd5	0.217650	0.232310	0.936720
Cd61	Cd6	0.305750	0.419510	0.178110
C491	C49	0.127100	0.173400	0.744200
C501	C50	0.073600	0.145300	0.635600
C511	C51	0.968100	0.119900	0.586000
H301	H30	0.926300	0.116500	0.617900
C521	C52	0.921600	0.098700	0.488300
H311	H31	0.849100	0.082500	0.455300
C531	C53	0.981300	0.101500	0.439500
C541	C54	0.089600	0.122800	0.490400
H321	H32	0.130500	0.121500	0.457900
C551	C55	0.136500	0.145600	0.588400
H331	H33	0.208600	0.160800	0.622200
C561	C56	0.932000	0.077600	0.333200
H341	H34	0.860000	0.074400	0.310300
H351	H35	0.929200	0.016400	0.304600
C571	C57	0.996600	0.242900	0.340300
H361	H36	0.035500	0.265200	0.409200
H371	H37	0.035400	0.284900	0.316600
C581	C58	0.890100	0.247600	0.313100
C591	C59	0.851800	0.256300	0.381000
H381	H38	0.895600	0.264900	0.443800
C601	C60	0.750200	0.252500	0.356900
H391	H39	0.727500	0.261100	0.403700
C611	C61	0.682600	0.236000	0.263700
C621	C62	0.720300	0.228800	0.194600
H401	H40	0.676500	0.220400	0.132000
C631	C63	0.822400	0.234200	0.220400
H411	H41	0.846300	0.228600	0.174200
C641	C64	0.568700	0.226000	0.234900
C651	C65	0.971500	0.119700	0.206700
C661	C66	0.045700	0.170400	0.180600
H421	H42	0.107000	0.220200	0.226900
C671	C67	0.029200	0.147700	0.087600
C681	C68	0.937300	0.074000	0.017400
H431	H43	0.924100	0.061000	0.953900
C691	C69	0.865300	0.020000	0.042800
C701	C70	0.883300	0.042800	0.136900
H441	H44	0.835500	0.006000	0.153700
C711	C71	0.111600	0.199700	0.062000
C721	C72	0.771800	0.934300	0.969400
C731	C73	0.333500	0.370300	0.424900
C741	C74	0.349200	0.463400	0.442100
H451	H45	0.381900	0.497600	0.412100
C751	C75	0.317700	0.508100	0.503200
H461	H46	0.328600	0.571100	0.513400
C761	C76	0.269200	0.457000	0.549100
C771	C77	0.260900	0.365800	0.537900
H471	H47	0.233900	0.332700	0.571800
C781	C78	0.292800	0.322800	0.475600
H481	H48	0.286400	0.261000	0.468300
C791	C79	0.356500	0.321100	0.350600
C801	C80	0.221600	0.503600	0.605300
H491	H49	0.157100	0.505400	0.560500
H501	H50	0.270800	0.568000	0.641900
C811	C81	0.093300	0.385300	0.633700
H511	H51	0.074000	0.324800	0.595400
C821	C82	0.017500	0.415300	0.662200
C831	C83	0.037900	0.507500	0.703000
H521	H52	0.099000	0.553800	0.710700
C841	C84	0.969700	0.534200	0.733300
H531	H53	0.985900	0.597200	0.761700
C851	C85	0.875800	0.464000	0.720200
C861	C86	0.853400	0.371600	0.677000
H541	H54	0.791000	0.325200	0.666700
C871	C87	0.922900	0.346800	0.648600
H551	H55	0.906600	0.283900	0.620000
C881	C88	0.805700	0.496400	0.755900
C891	C89	0.268600	0.484700	0.764100
C901	C90	0.238900	0.452900	0.831400
H561	H56	0.171400	0.408100	0.811000
C911	C91	0.308900	0.487500	0.926400
C921	C92	0.411800	0.553700	0.959600
H571	H57	0.457700	0.578900	0.024200
C931	C93	0.444000	0.581200	0.893200
C941	C94	0.374200	0.546700	0.797500
H581	H58	0.397400	0.564700	0.754300
C951	C95	0.556500	0.644900	0.928000
C961	C96	0.277900	0.453600	0.997600
O171	O17	0.070900	0.174000	0.784700
O181	O18	0.219800	0.193400	0.787500
O191	O19	0.507900	0.203000	0.151200
O201	O20	0.543000	0.244200	0.298300
O211	O21	0.202400	0.254300	0.126900
O221	O22	0.086100	0.181700	0.974500
O231	O23	0.723800	0.873400	0.995700
O241	O24	0.743700	0.926600	0.882600
O251	O25	0.341900	0.236300	0.335300
O261	O26	0.387100	0.366300	0.301500
O271	O27	0.717000	0.432700	0.734000
O281	O28	0.832800	0.575300	0.799600
O291	O29	0.610400	0.686300	0.014100
O301	O30	0.591500	0.652100	0.866200
O311	O31	0.333700	0.502500	0.083500
O321	O32	0.201200	0.376400	0.970200
N31	N3	0.992200	0.147600	0.303700
N41	N4	0.197300	0.456700	0.669900
