data_USUWUC_clean_PM
_symmetry_space_group_name_H-M	'P1'
_cell_length_a	15.507400
_cell_length_b	13.298000
_cell_length_c	10.655300
_cell_angle_alpha	90.000000
_cell_angle_beta	103.131000
_cell_angle_gamma	90.000000
_symmetry_Int_Tables_number 1

loop_
_symmetry_equiv_pos_as_xyz
'x,y,z'

loop_
_atom_site_label
_atom_site_type_symbol
_atom_site_fract_x
_atom_site_fract_y
_atom_site_fract_z
In11	In1	0.375530	0.664210	0.483040
In21	In2	0.120450	0.667080	0.500120
O11	O1	0.333100	0.635600	0.272600
O21	O2	0.337700	0.698700	0.080600
O31	O3	0.418100	0.797500	0.385500
O41	O4	0.427100	0.857800	0.194000
O51	O5	0.077000	0.800100	0.599100
O61	O6	0.061900	0.852700	0.791700
O71	O7	0.169300	0.640800	0.709000
O81	O8	0.159300	0.696500	0.901200
O91	O9	0.514200	0.629400	0.485200
O101	O10	0.613300	0.506300	0.511100
O111	O11	0.984400	0.629600	0.512400
O121	O12	0.889300	0.504500	0.503900
O131	O13	0.246600	0.619300	0.485400
C11	C1	0.353700	0.701500	0.200400
C21	C2	0.403800	0.793900	0.266300
C31	C3	0.089700	0.793600	0.717700
C41	C4	0.144500	0.702600	0.782500
C51	C5	0.537000	0.538800	0.499300
C61	C6	0.962800	0.538300	0.505200
In31	In3	0.624470	0.164210	0.016960
In41	In4	0.879550	0.167080	0.999880
O141	O14	0.666900	0.135600	0.227400
O151	O15	0.662300	0.198700	0.419400
O161	O16	0.581900	0.297500	0.114500
O171	O17	0.572900	0.357800	0.306000
O181	O18	0.923000	0.300100	0.900900
O191	O19	0.938100	0.352700	0.708300
O201	O20	0.830700	0.140800	0.791000
O211	O21	0.840700	0.196500	0.598800
O221	O22	0.485800	0.129400	0.014800
O231	O23	0.386700	0.006300	0.988900
O241	O24	0.015600	0.129600	0.987600
O251	O25	0.110700	0.004500	0.996100
O261	O26	0.753400	0.119300	0.014600
C71	C7	0.646300	0.201500	0.299600
C81	C8	0.596200	0.293900	0.233700
C91	C9	0.910300	0.293600	0.782300
C101	C10	0.855500	0.202600	0.717500
C111	C11	0.463000	0.038800	0.000700
C121	C12	0.037200	0.038300	0.994800
In51	In5	0.624470	0.335790	0.516960
In61	In6	0.879550	0.332920	0.499880
O271	O27	0.666900	0.364400	0.727400
O281	O28	0.662300	0.301300	0.919400
O291	O29	0.581900	0.202500	0.614500
O301	O30	0.572900	0.142200	0.806000
O311	O31	0.923000	0.199900	0.400900
O321	O32	0.938100	0.147300	0.208300
O331	O33	0.830700	0.359200	0.291000
O341	O34	0.840700	0.303500	0.098800
O351	O35	0.485800	0.370600	0.514800
O361	O36	0.386700	0.493700	0.488900
O371	O37	0.015600	0.370400	0.487600
O381	O38	0.110700	0.495500	0.496100
O391	O39	0.753400	0.380700	0.514600
C131	C13	0.646300	0.298500	0.799600
C141	C14	0.596200	0.206100	0.733700
C151	C15	0.910300	0.206400	0.282300
C161	C16	0.855500	0.297400	0.217500
C171	C17	0.463000	0.461200	0.500700
C181	C18	0.037200	0.461700	0.494800
In71	In7	0.375530	0.835790	0.983040
In81	In8	0.120450	0.832920	0.000120
O401	O40	0.333100	0.864400	0.772600
O411	O41	0.337700	0.801300	0.580600
O421	O42	0.418100	0.702500	0.885500
O431	O43	0.427100	0.642200	0.694000
O441	O44	0.077000	0.699900	0.099100
O451	O45	0.061900	0.647300	0.291700
O461	O46	0.169300	0.859200	0.209000
O471	O47	0.159300	0.803500	0.401200
O481	O48	0.514200	0.870600	0.985200
O491	O49	0.613300	0.993700	0.011100
O501	O50	0.984400	0.870400	0.012400
O511	O51	0.889300	0.995500	0.003900
O521	O52	0.246600	0.880700	0.985400
C191	C19	0.353700	0.798500	0.700400
C201	C20	0.403800	0.706100	0.766300
C211	C21	0.089700	0.706400	0.217700
C221	C22	0.144500	0.797400	0.282500
C231	C23	0.537000	0.961200	0.999300
C241	C24	0.962800	0.961700	0.005200
