data_UTACUP_clean_PM
_symmetry_space_group_name_H-M	'P1'
_cell_length_a	14.409900
_cell_length_b	14.409900
_cell_length_c	33.222000
_cell_angle_alpha	90.000000
_cell_angle_beta	90.000000
_cell_angle_gamma	120.000000
_symmetry_Int_Tables_number 1

loop_
_symmetry_equiv_pos_as_xyz
'x,y,z'

loop_
_atom_site_label
_atom_site_type_symbol
_atom_site_fract_x
_atom_site_fract_y
_atom_site_fract_z
Cu11	Cu1	0.067180	0.154240	0.811920
O11	O1	0.089700	0.196200	0.753700
O21	O2	0.065300	0.147300	0.871340
O31	O3	0.122000	0.243700	0.927650
O41	O4	0.211600	0.422400	0.612930
O51	O5	0.252700	0.519700	0.669100
O61	O6	0.227500	0.469900	0.787000
N11	N1	0.140000	0.307200	0.822100
N21	N2	0.167400	0.359200	0.718700
C11	C1	0.113600	0.237700	0.889700
C21	C2	0.157400	0.341500	0.863800
H11	H1	0.236500	0.384800	0.868300
C31	C3	0.106700	0.412500	0.876800
C41	C4	0.171900	0.366800	0.789600
C51	C5	0.988900	0.355200	0.867100
H21	H2	0.958400	0.399700	0.875200
H31	H3	0.952700	0.286900	0.881600
H41	H4	0.978900	0.341600	0.838100
C61	C6	0.167200	0.509000	0.889600
H51	H5	0.122900	0.540300	0.896700
H61	H6	0.217800	0.551700	0.868400
H71	H7	0.206900	0.507500	0.913300
C71	C7	0.209000	0.428300	0.650600
C81	C8	0.149100	0.323300	0.675800
H81	H8	0.184300	0.279600	0.670900
C91	C9	0.028800	0.255400	0.663100
C101	C10	0.137700	0.300400	0.750600
C111	C11	0.966900	0.312300	0.673600
H91	H9	0.012500	0.389400	0.668800
H101	H10	0.945700	0.299800	0.702000
H111	H11	0.902800	0.284300	0.656700
C121	C12	0.969000	0.140000	0.666300
H121	H12	0.896500	0.112800	0.656900
H131	H13	0.969100	0.119300	0.694500
H141	H14	0.004900	0.110000	0.649700
Cu21	Cu2	0.247290	0.512270	0.728480
Cu31	Cu3	0.733850	0.487570	0.145250
O71	O7	0.756370	0.529530	0.087030
O81	O8	0.731970	0.480630	0.204670
O91	O9	0.788670	0.577030	0.260980
O101	O10	0.878270	0.755730	0.946260
O111	O11	0.919370	0.853030	0.002430
O121	O12	0.894170	0.803230	0.120330
N31	N3	0.806670	0.640530	0.155430
N41	N4	0.834070	0.692530	0.052030
C131	C13	0.780270	0.571030	0.223030
C141	C14	0.824070	0.674830	0.197130
H151	H15	0.903170	0.718130	0.201630
C151	C15	0.773370	0.745830	0.210130
C161	C16	0.838570	0.700130	0.122930
C171	C17	0.655570	0.688530	0.200430
H161	H16	0.625070	0.733030	0.208530
H171	H17	0.619370	0.620230	0.214930
H181	H18	0.645570	0.674930	0.171430
C181	C18	0.833870	0.842330	0.222930
H191	H19	0.789570	0.873630	0.230030
H201	H20	0.884470	0.885030	0.201730
H211	H21	0.873570	0.840830	0.246630
C191	C19	0.875670	0.761630	0.983930
C201	C20	0.815770	0.656630	0.009130
H221	H22	0.850970	0.612930	0.004230
C211	C21	0.695470	0.588730	0.996430
C221	C22	0.804370	0.633730	0.083930
C231	C23	0.633570	0.645630	0.006930
H231	H23	0.679170	0.722730	0.002130
H241	H24	0.612370	0.633130	0.035330
H251	H25	0.569470	0.617630	0.990030
C241	C24	0.635670	0.473330	0.999630
H261	H26	0.563170	0.446130	0.990230
H271	H27	0.635770	0.452630	0.027830
H281	H28	0.671570	0.443330	0.983030
Cu41	Cu4	0.913960	0.845600	0.061810
Cu51	Cu5	0.400510	0.820910	0.478590
O131	O13	0.423030	0.862870	0.420370
O141	O14	0.398630	0.813970	0.538010
O151	O15	0.455330	0.910370	0.594320
O161	O16	0.544930	0.089070	0.279600
O171	O17	0.586030	0.186370	0.335770
O181	O18	0.560830	0.136570	0.453670
N51	N5	0.473330	0.973870	0.488770
N61	N6	0.500730	0.025870	0.385370
C251	C25	0.446930	0.904370	0.556370
C261	C26	0.490730	0.008170	0.530470
H291	H29	0.569830	0.051470	0.534970
C271	C27	0.440030	0.079170	0.543470
C281	C28	0.505230	0.033470	0.456270
C291	C29	0.322230	0.021870	0.533770
H301	H30	0.291730	0.066370	0.541870
H311	H31	0.286030	0.953570	0.548270
H321	H32	0.312230	0.008270	0.504770
C301	C30	0.500530	0.175670	0.556270
H331	H33	0.456230	0.206970	0.563370
H341	H34	0.551130	0.218370	0.535070
H351	H35	0.540230	0.174170	0.579970
C311	C31	0.542330	0.094970	0.317270
C321	C32	0.482430	0.989970	0.342470
H361	H36	0.517630	0.946270	0.337570
C331	C33	0.362130	0.922070	0.329770
C341	C34	0.471030	0.967070	0.417270
C351	C35	0.300230	0.978970	0.340270
H371	H37	0.345830	0.056070	0.335470
H381	H38	0.279030	0.966470	0.368670
H391	H39	0.236130	0.950970	0.323370
C361	C36	0.302330	0.806670	0.332970
H401	H40	0.229830	0.779470	0.323570
H411	H41	0.302430	0.785970	0.361170
H421	H42	0.338230	0.776670	0.316370
Cu61	Cu6	0.580620	0.178940	0.395150
Cu71	Cu7	0.845760	0.912940	0.811920
O191	O19	0.803800	0.893500	0.753700
O201	O20	0.852700	0.918000	0.871340
O211	O21	0.756300	0.878300	0.927650
O221	O22	0.577600	0.789200	0.612930
O231	O23	0.480300	0.733000	0.669100
O241	O24	0.530100	0.757600	0.787000
N71	N7	0.692800	0.832800	0.822100
N81	N8	0.640800	0.808200	0.718700
C371	C37	0.762300	0.875900	0.889700
C381	C38	0.658500	0.815900	0.863800
H431	H43	0.615200	0.851700	0.868300
C391	C39	0.587500	0.694200	0.876800
C401	C40	0.633200	0.805100	0.789600
C411	C41	0.644800	0.633700	0.867100
H441	H44	0.600300	0.558700	0.875200
H451	H45	0.713100	0.665800	0.881600
H461	H46	0.658400	0.637300	0.838100
C421	C42	0.491000	0.658200	0.889600
H471	H47	0.459700	0.582600	0.896700
H481	H48	0.448300	0.666100	0.868400
H491	H49	0.492500	0.699400	0.913300
C431	C43	0.571700	0.780700	0.650600
C441	C44	0.676700	0.825800	0.675800
H501	H50	0.720400	0.904700	0.670900
C451	C45	0.744600	0.773400	0.663100
C461	C46	0.699600	0.837300	0.750600
C471	C47	0.687700	0.654600	0.673600
H511	H51	0.610600	0.623100	0.668800
H521	H52	0.700200	0.645900	0.702000
H531	H53	0.715700	0.618500	0.656700
C481	C48	0.860000	0.829000	0.666300
H541	H54	0.887200	0.783700	0.656900
H551	H55	0.880700	0.849800	0.694500
H561	H56	0.890000	0.894900	0.649700
Cu81	Cu8	0.487730	0.735020	0.728480
Cu91	Cu9	0.512430	0.246270	0.145250
O251	O25	0.470470	0.226830	0.087030
O261	O26	0.519370	0.251330	0.204670
O271	O27	0.422970	0.211630	0.260980
O281	O28	0.244270	0.122530	0.946260
O291	O29	0.146970	0.066330	0.002430
O301	O30	0.196770	0.090930	0.120330
N91	N9	0.359470	0.166130	0.155430
N101	N10	0.307470	0.141530	0.052030
C491	C49	0.428970	0.209230	0.223030
C501	C50	0.325170	0.149230	0.197130
H571	H57	0.281870	0.185030	0.201630
C511	C51	0.254170	0.027530	0.210130
C521	C52	0.299870	0.138430	0.122930
C531	C53	0.311470	0.967030	0.200430
H581	H58	0.266970	0.892030	0.208530
H591	H59	0.379770	0.999130	0.214930
H601	H60	0.325070	0.970630	0.171430
C541	C54	0.157670	0.991530	0.222930
H611	H61	0.126370	0.915930	0.230030
H621	H62	0.114970	0.999430	0.201730
H631	H63	0.159170	0.032730	0.246630
C551	C55	0.238370	0.114030	0.983930
C561	C56	0.343370	0.159130	0.009130
H641	H64	0.387070	0.238030	0.004230
C571	C57	0.411270	0.106730	0.996430
C581	C58	0.366270	0.170630	0.083930
C591	C59	0.354370	0.987930	0.006930
H651	H65	0.277270	0.956430	0.002130
H661	H66	0.366870	0.979230	0.035330
H671	H67	0.382370	0.951830	0.990030
C601	C60	0.526670	0.162330	0.999630
H681	H68	0.553870	0.117030	0.990230
H691	H69	0.547370	0.183130	0.027830
H701	H70	0.556670	0.228230	0.983030
Cu101	Cu10	0.154400	0.068350	0.061810
Cu111	Cu11	0.179090	0.579610	0.478590
O311	O31	0.137130	0.560170	0.420370
O321	O32	0.186030	0.584670	0.538010
O331	O33	0.089630	0.544970	0.594320
O341	O34	0.910930	0.455870	0.279600
O351	O35	0.813630	0.399670	0.335770
O361	O36	0.863430	0.424270	0.453670
N111	N11	0.026130	0.499470	0.488770
N121	N12	0.974130	0.474870	0.385370
C611	C61	0.095630	0.542570	0.556370
C621	C62	0.991830	0.482570	0.530470
H711	H71	0.948530	0.518370	0.534970
C631	C63	0.920830	0.360870	0.543470
C641	C64	0.966530	0.471770	0.456270
C651	C65	0.978130	0.300370	0.533770
H721	H72	0.933630	0.225370	0.541870
H731	H73	0.046430	0.332470	0.548270
H741	H74	0.991730	0.303970	0.504770
C661	C66	0.824330	0.324870	0.556270
H751	H75	0.793030	0.249270	0.563370
H761	H76	0.781630	0.332770	0.535070
H771	H77	0.825830	0.366070	0.579970
C671	C67	0.905030	0.447370	0.317270
C681	C68	0.010030	0.492470	0.342470
H781	H78	0.053730	0.571370	0.337570
C691	C69	0.077930	0.440070	0.329770
C701	C70	0.032930	0.503970	0.417270
C711	C71	0.021030	0.321270	0.340270
H791	H79	0.943930	0.289770	0.335470
H801	H80	0.033530	0.312570	0.368670
H811	H81	0.049030	0.285170	0.323370
C721	C72	0.193330	0.495670	0.332970
H821	H82	0.220530	0.450370	0.323570
H831	H83	0.214030	0.516470	0.361170
H841	H84	0.223330	0.561570	0.316370
Cu121	Cu12	0.821060	0.401690	0.395150
Cu131	Cu13	0.087060	0.932820	0.811920
O371	O37	0.106500	0.910300	0.753700
O381	O38	0.082000	0.934700	0.871340
O391	O39	0.121700	0.878000	0.927650
O401	O40	0.210800	0.788400	0.612930
O411	O41	0.267000	0.747300	0.669100
O421	O42	0.242400	0.772500	0.787000
N131	N13	0.167200	0.860000	0.822100
N141	N14	0.191800	0.832600	0.718700
C731	C73	0.124100	0.886400	0.889700
C741	C74	0.184100	0.842600	0.863800
H851	H85	0.148300	0.763500	0.868300
C751	C75	0.305800	0.893300	0.876800
C761	C76	0.194900	0.828100	0.789600
C771	C77	0.366300	0.011100	0.867100
H861	H86	0.441300	0.041600	0.875200
H871	H87	0.334200	0.047300	0.881600
H881	H88	0.362700	0.021100	0.838100
C781	C78	0.341800	0.832800	0.889600
H891	H89	0.417400	0.877100	0.896700
H901	H90	0.333900	0.782200	0.868400
H911	H91	0.300600	0.793100	0.913300
C791	C79	0.219300	0.791000	0.650600
C801	C80	0.174200	0.850900	0.675800
H921	H92	0.095300	0.815700	0.670900
C811	C81	0.226600	0.971200	0.663100
C821	C82	0.162700	0.862300	0.750600
C831	C83	0.345400	0.033100	0.673600
H931	H93	0.376900	0.987500	0.668800
H941	H94	0.354100	0.054300	0.702000
H951	H95	0.381500	0.097200	0.656700
C841	C84	0.171000	0.031000	0.666300
H961	H96	0.216300	0.103500	0.656900
H971	H97	0.150200	0.030900	0.694500
H981	H98	0.105100	0.995100	0.649700
Cu141	Cu14	0.264980	0.752710	0.728480
Cu151	Cu15	0.753730	0.266150	0.145250
O431	O43	0.773170	0.243630	0.087030
O441	O44	0.748670	0.268030	0.204670
O451	O45	0.788370	0.211330	0.260980
O461	O46	0.877470	0.121730	0.946260
O471	O47	0.933670	0.080630	0.002430
O481	O48	0.909070	0.105830	0.120330
N151	N15	0.833870	0.193330	0.155430
N161	N16	0.858470	0.165930	0.052030
C851	C85	0.790770	0.219730	0.223030
C861	C86	0.850770	0.175930	0.197130
H991	H99	0.814970	0.096830	0.201630
C871	C87	0.972470	0.226630	0.210130
C881	C88	0.861570	0.161430	0.122930
C891	C89	0.032970	0.344430	0.200430
H1001	H100	0.107970	0.374930	0.208530
H1011	H101	0.000870	0.380630	0.214930
H1021	H102	0.029370	0.354430	0.171430
C901	C90	0.008470	0.166130	0.222930
H1031	H103	0.084070	0.210430	0.230030
H1041	H104	0.000570	0.115530	0.201730
H1051	H105	0.967270	0.126430	0.246630
C911	C91	0.885970	0.124330	0.983930
C921	C92	0.840870	0.184230	0.009130
H1061	H106	0.761970	0.149030	0.004230
C931	C93	0.893270	0.304530	0.996430
C941	C94	0.829370	0.195630	0.083930
C951	C95	0.012070	0.366430	0.006930
H1071	H107	0.043570	0.320830	0.002130
H1081	H108	0.020770	0.387630	0.035330
H1091	H109	0.048170	0.430530	0.990030
C961	C96	0.837670	0.364330	0.999630
H1101	H110	0.882970	0.436830	0.990230
H1111	H111	0.816870	0.364230	0.027830
H1121	H112	0.771770	0.328430	0.983030
Cu161	Cu16	0.931650	0.086040	0.061810
Cu171	Cu17	0.420390	0.599490	0.478590
O491	O49	0.439830	0.576970	0.420370
O501	O50	0.415330	0.601370	0.538010
O511	O51	0.455030	0.544670	0.594320
O521	O52	0.544130	0.455070	0.279600
O531	O53	0.600330	0.413970	0.335770
O541	O54	0.575730	0.439170	0.453670
N171	N17	0.500530	0.526670	0.488770
N181	N18	0.525130	0.499270	0.385370
C971	C97	0.457430	0.553070	0.556370
C981	C98	0.517430	0.509270	0.530470
H1131	H113	0.481630	0.430170	0.534970
C991	C99	0.639130	0.559970	0.543470
C1001	C100	0.528230	0.494770	0.456270
C1011	C101	0.699630	0.677770	0.533770
H1141	H114	0.774630	0.708270	0.541870
H1151	H115	0.667530	0.713970	0.548270
H1161	H116	0.696030	0.687770	0.504770
C1021	C102	0.675130	0.499470	0.556270
H1171	H117	0.750730	0.543770	0.563370
H1181	H118	0.667230	0.448870	0.535070
H1191	H119	0.633930	0.459770	0.579970
C1031	C103	0.552630	0.457670	0.317270
C1041	C104	0.507530	0.517570	0.342470
H1201	H120	0.428630	0.482370	0.337570
C1051	C105	0.559930	0.637870	0.329770
C1061	C106	0.496030	0.528970	0.417270
C1071	C107	0.678730	0.699770	0.340270
H1211	H121	0.710230	0.654170	0.335470
H1221	H122	0.687430	0.720970	0.368670
H1231	H123	0.714830	0.763870	0.323370
C1081	C108	0.504330	0.697670	0.332970
H1241	H124	0.549630	0.770170	0.323570
H1251	H125	0.483530	0.697570	0.361170
H1261	H126	0.438430	0.661770	0.316370
Cu181	Cu18	0.598310	0.419380	0.395150
Ba11	Ba1	0.000000	0.000000	0.936870
O551	O55	0.000000	0.000000	0.798500
Ba21	Ba2	0.666670	0.333330	0.270200
O561	O56	0.666670	0.333330	0.131830
Ba31	Ba3	0.333330	0.666670	0.603540
O571	O57	0.333330	0.666670	0.465170
O581	O58	0.333330	0.666670	0.742100
O591	O59	0.000000	0.000000	0.075430
O601	O60	0.666670	0.333330	0.408770
