data_UTELIQ_clean_PM
_symmetry_space_group_name_H-M	'P1'
_cell_length_a	24.832600
_cell_length_b	17.418500
_cell_length_c	17.063400
_cell_angle_alpha	90.000000
_cell_angle_beta	113.428000
_cell_angle_gamma	90.000000
_symmetry_Int_Tables_number 1

loop_
_symmetry_equiv_pos_as_xyz
'x,y,z'

loop_
_atom_site_label
_atom_site_type_symbol
_atom_site_fract_x
_atom_site_fract_y
_atom_site_fract_z
C11	C1	0.118040	0.272120	0.856700
C21	C2	0.210230	0.086590	0.923900
C31	C3	0.085440	0.323360	0.893000
C41	C4	0.353370	0.234900	0.842400
C51	C5	0.299740	0.229800	0.863400
C61	C6	0.024870	0.315300	0.865900
H11	H1	0.005300	0.276600	0.827700
C71	C7	0.348350	0.220300	0.760300
H21	H2	0.312000	0.207100	0.718400
C81	C8	0.396620	0.224900	0.739400
H31	H3	0.392500	0.216200	0.683500
C91	C9	0.023200	0.422700	0.952000
C101	C10	0.114270	0.380300	0.950700
H41	H4	0.154800	0.384900	0.969900
C111	C11	0.993980	0.364600	0.895600
H51	H5	0.953600	0.358900	0.877800
C121	C12	0.451210	0.242700	0.802100
C131	C13	0.083610	0.430500	0.980300
H61	H6	0.103200	0.469100	0.018700
C141	C14	0.219560	0.003900	0.948100
C151	C15	0.407670	0.253900	0.904500
H71	H7	0.411200	0.264500	0.959800
C161	C16	0.456900	0.257200	0.885500
H81	H8	0.493400	0.269000	0.927900
C171	C17	0.269800	0.905000	0.049400
H91	H9	0.297100	0.891200	0.103200
C181	C18	0.259500	0.982200	0.027600
H101	H10	0.279900	0.019600	0.067200
C191	C19	0.189900	0.947200	0.891600
H111	H11	0.162300	0.960200	0.837800
C201	C20	0.200800	0.870200	0.914600
H121	H12	0.180600	0.832300	0.875600
C211	C21	0.240100	0.849800	0.992300
Mg11	Mg1	0.170160	0.200440	0.782950
N11	N1	0.986220	0.473060	0.975500
N21	N2	0.504210	0.245600	0.788000
N31	N3	0.262100	0.768700	0.027200
O11	O1	0.255470	0.198550	0.807180
O21	O2	0.302960	0.256710	0.932560
O31	O3	0.238300	0.133740	0.979320
O41	O4	0.175340	0.101610	0.848170
O51	O5	0.090520	0.231650	0.793070
O61	O6	0.174100	0.272750	0.888380
C221	C22	0.618040	0.772120	0.856700
C231	C23	0.710230	0.586590	0.923900
C241	C24	0.585440	0.823360	0.893000
C251	C25	0.853370	0.734900	0.842400
C261	C26	0.799740	0.729800	0.863400
C271	C27	0.524870	0.815300	0.865900
H131	H13	0.505300	0.776600	0.827700
C281	C28	0.848350	0.720300	0.760300
H141	H14	0.812000	0.707100	0.718400
C291	C29	0.896620	0.724900	0.739400
H151	H15	0.892500	0.716200	0.683500
C301	C30	0.523200	0.922700	0.952000
C311	C31	0.614270	0.880300	0.950700
H161	H16	0.654800	0.884900	0.969900
C321	C32	0.493980	0.864600	0.895600
H171	H17	0.453600	0.858900	0.877800
C331	C33	0.951210	0.742700	0.802100
C341	C34	0.583610	0.930500	0.980300
H181	H18	0.603200	0.969100	0.018700
C351	C35	0.719560	0.503900	0.948100
C361	C36	0.907670	0.753900	0.904500
H191	H19	0.911200	0.764500	0.959800
C371	C37	0.956900	0.757200	0.885500
H201	H20	0.993400	0.769000	0.927900
C381	C38	0.769800	0.405000	0.049400
H211	H21	0.797100	0.391200	0.103200
C391	C39	0.759500	0.482200	0.027600
H221	H22	0.779900	0.519600	0.067200
C401	C40	0.689900	0.447200	0.891600
H231	H23	0.662300	0.460200	0.837800
C411	C41	0.700800	0.370200	0.914600
H241	H24	0.680600	0.332300	0.875600
C421	C42	0.740100	0.349800	0.992300
Mg21	Mg2	0.670160	0.700440	0.782950
N41	N4	0.486220	0.973060	0.975500
N51	N5	0.004210	0.745600	0.788000
N61	N6	0.762100	0.268700	0.027200
O71	O7	0.755470	0.698550	0.807180
O81	O8	0.802960	0.756710	0.932560
O91	O9	0.738300	0.633740	0.979320
O101	O10	0.675340	0.601610	0.848170
O111	O11	0.590520	0.731650	0.793070
O121	O12	0.674100	0.772750	0.888380
C431	C43	0.881960	0.272120	0.643300
C441	C44	0.789770	0.086590	0.576100
C451	C45	0.914560	0.323360	0.607000
C461	C46	0.646630	0.234900	0.657600
C471	C47	0.700260	0.229800	0.636600
C481	C48	0.975130	0.315300	0.634100
H251	H25	0.994700	0.276600	0.672300
C491	C49	0.651650	0.220300	0.739700
H261	H26	0.688000	0.207100	0.781600
C501	C50	0.603380	0.224900	0.760600
H271	H27	0.607500	0.216200	0.816500
C511	C51	0.976800	0.422700	0.548000
C521	C52	0.885730	0.380300	0.549300
H281	H28	0.845200	0.384900	0.530100
C531	C53	0.006020	0.364600	0.604400
H291	H29	0.046400	0.358900	0.622200
C541	C54	0.548790	0.242700	0.697900
C551	C55	0.916390	0.430500	0.519700
H301	H30	0.896800	0.469100	0.481300
C561	C56	0.780440	0.003900	0.551900
C571	C57	0.592330	0.253900	0.595500
H311	H31	0.588800	0.264500	0.540200
C581	C58	0.543100	0.257200	0.614500
H321	H32	0.506600	0.269000	0.572100
C591	C59	0.730200	0.905000	0.450600
H331	H33	0.702900	0.891200	0.396800
C601	C60	0.740500	0.982200	0.472400
H341	H34	0.720100	0.019600	0.432800
C611	C61	0.810100	0.947200	0.608400
H351	H35	0.837700	0.960200	0.662200
C621	C62	0.799200	0.870200	0.585400
H361	H36	0.819400	0.832300	0.624400
C631	C63	0.759900	0.849800	0.507700
Mg31	Mg3	0.829840	0.200440	0.717050
N71	N7	0.013780	0.473060	0.524500
N81	N8	0.495790	0.245600	0.712000
N91	N9	0.737900	0.768700	0.472800
O131	O13	0.744530	0.198550	0.692820
O141	O14	0.697040	0.256710	0.567440
O151	O15	0.761700	0.133740	0.520680
O161	O16	0.824660	0.101610	0.651830
O171	O17	0.909480	0.231650	0.706930
O181	O18	0.825900	0.272750	0.611620
C641	C64	0.381960	0.772120	0.643300
C651	C65	0.289770	0.586590	0.576100
C661	C66	0.414560	0.823360	0.607000
C671	C67	0.146630	0.734900	0.657600
C681	C68	0.200260	0.729800	0.636600
C691	C69	0.475130	0.815300	0.634100
H371	H37	0.494700	0.776600	0.672300
C701	C70	0.151650	0.720300	0.739700
H381	H38	0.188000	0.707100	0.781600
C711	C71	0.103380	0.724900	0.760600
H391	H39	0.107500	0.716200	0.816500
C721	C72	0.476800	0.922700	0.548000
C731	C73	0.385730	0.880300	0.549300
H401	H40	0.345200	0.884900	0.530100
C741	C74	0.506020	0.864600	0.604400
H411	H41	0.546400	0.858900	0.622200
C751	C75	0.048790	0.742700	0.697900
C761	C76	0.416390	0.930500	0.519700
H421	H42	0.396800	0.969100	0.481300
C771	C77	0.280440	0.503900	0.551900
C781	C78	0.092330	0.753900	0.595500
H431	H43	0.088800	0.764500	0.540200
C791	C79	0.043100	0.757200	0.614500
H441	H44	0.006600	0.769000	0.572100
C801	C80	0.230200	0.405000	0.450600
H451	H45	0.202900	0.391200	0.396800
C811	C81	0.240500	0.482200	0.472400
H461	H46	0.220100	0.519600	0.432800
C821	C82	0.310100	0.447200	0.608400
H471	H47	0.337700	0.460200	0.662200
C831	C83	0.299200	0.370200	0.585400
H481	H48	0.319400	0.332300	0.624400
C841	C84	0.259900	0.349800	0.507700
Mg41	Mg4	0.329840	0.700440	0.717050
N101	N10	0.513780	0.973060	0.524500
N111	N11	0.995790	0.745600	0.712000
N121	N12	0.237900	0.268700	0.472800
O191	O19	0.244530	0.698550	0.692820
O201	O20	0.197040	0.756710	0.567440
O211	O21	0.261700	0.633740	0.520680
O221	O22	0.324660	0.601610	0.651830
O231	O23	0.409480	0.731650	0.706930
O241	O24	0.325900	0.772750	0.611620
C851	C85	0.881960	0.727880	0.143300
C861	C86	0.789770	0.913410	0.076100
C871	C87	0.914560	0.676640	0.107000
C881	C88	0.646630	0.765100	0.157600
C891	C89	0.700260	0.770200	0.136600
C901	C90	0.975130	0.684700	0.134100
H491	H49	0.994700	0.723400	0.172300
C911	C91	0.651650	0.779700	0.239700
H501	H50	0.688000	0.792900	0.281600
C921	C92	0.603380	0.775100	0.260600
H511	H51	0.607500	0.783800	0.316500
C931	C93	0.976800	0.577300	0.048000
C941	C94	0.885730	0.619700	0.049300
H521	H52	0.845200	0.615100	0.030100
C951	C95	0.006020	0.635400	0.104400
H531	H53	0.046400	0.641100	0.122200
C961	C96	0.548790	0.757300	0.197900
C971	C97	0.916390	0.569500	0.019700
H541	H54	0.896800	0.530900	0.981300
C981	C98	0.780440	0.996100	0.051900
C991	C99	0.592330	0.746100	0.095500
H551	H55	0.588800	0.735500	0.040200
C1001	C100	0.543100	0.742800	0.114500
H561	H56	0.506600	0.731000	0.072100
C1011	C101	0.730200	0.095000	0.950600
H571	H57	0.702900	0.108800	0.896800
C1021	C102	0.740500	0.017800	0.972400
H581	H58	0.720100	0.980400	0.932800
C1031	C103	0.810100	0.052800	0.108400
H591	H59	0.837700	0.039800	0.162200
C1041	C104	0.799200	0.129800	0.085400
H601	H60	0.819400	0.167700	0.124400
C1051	C105	0.759900	0.150200	0.007700
Mg51	Mg5	0.829840	0.799560	0.217050
N131	N13	0.013780	0.526940	0.024500
N141	N14	0.495790	0.754400	0.212000
N151	N15	0.737900	0.231300	0.972800
O251	O25	0.744530	0.801450	0.192820
O261	O26	0.697040	0.743290	0.067440
O271	O27	0.761700	0.866260	0.020680
O281	O28	0.824660	0.898390	0.151830
O291	O29	0.909480	0.768350	0.206930
O301	O30	0.825900	0.727250	0.111620
C1061	C106	0.381960	0.227880	0.143300
C1071	C107	0.289770	0.413410	0.076100
C1081	C108	0.414560	0.176640	0.107000
C1091	C109	0.146630	0.265100	0.157600
C1101	C110	0.200260	0.270200	0.136600
C1111	C111	0.475130	0.184700	0.134100
H611	H61	0.494700	0.223400	0.172300
C1121	C112	0.151650	0.279700	0.239700
H621	H62	0.188000	0.292900	0.281600
C1131	C113	0.103380	0.275100	0.260600
H631	H63	0.107500	0.283800	0.316500
C1141	C114	0.476800	0.077300	0.048000
C1151	C115	0.385730	0.119700	0.049300
H641	H64	0.345200	0.115100	0.030100
C1161	C116	0.506020	0.135400	0.104400
H651	H65	0.546400	0.141100	0.122200
C1171	C117	0.048790	0.257300	0.197900
C1181	C118	0.416390	0.069500	0.019700
H661	H66	0.396800	0.030900	0.981300
C1191	C119	0.280440	0.496100	0.051900
C1201	C120	0.092330	0.246100	0.095500
H671	H67	0.088800	0.235500	0.040200
C1211	C121	0.043100	0.242800	0.114500
H681	H68	0.006600	0.231000	0.072100
C1221	C122	0.230200	0.595000	0.950600
H691	H69	0.202900	0.608800	0.896800
C1231	C123	0.240500	0.517800	0.972400
H701	H70	0.220100	0.480400	0.932800
C1241	C124	0.310100	0.552800	0.108400
H711	H71	0.337700	0.539800	0.162200
C1251	C125	0.299200	0.629800	0.085400
H721	H72	0.319400	0.667700	0.124400
C1261	C126	0.259900	0.650200	0.007700
Mg61	Mg6	0.329840	0.299560	0.217050
N161	N16	0.513780	0.026940	0.024500
N171	N17	0.995790	0.254400	0.212000
N181	N18	0.237900	0.731300	0.972800
O311	O31	0.244530	0.301450	0.192820
O321	O32	0.197040	0.243290	0.067440
O331	O33	0.261700	0.366260	0.020680
O341	O34	0.324660	0.398390	0.151830
O351	O35	0.409480	0.268350	0.206930
O361	O36	0.325900	0.227250	0.111620
C1271	C127	0.118040	0.727880	0.356700
C1281	C128	0.210230	0.913410	0.423900
C1291	C129	0.085440	0.676640	0.393000
C1301	C130	0.353370	0.765100	0.342400
C1311	C131	0.299740	0.770200	0.363400
C1321	C132	0.024870	0.684700	0.365900
H731	H73	0.005300	0.723400	0.327700
C1331	C133	0.348350	0.779700	0.260300
H741	H74	0.312000	0.792900	0.218400
C1341	C134	0.396620	0.775100	0.239400
H751	H75	0.392500	0.783800	0.183500
C1351	C135	0.023200	0.577300	0.452000
C1361	C136	0.114270	0.619700	0.450700
H761	H76	0.154800	0.615100	0.469900
C1371	C137	0.993980	0.635400	0.395600
H771	H77	0.953600	0.641100	0.377800
C1381	C138	0.451210	0.757300	0.302100
C1391	C139	0.083610	0.569500	0.480300
H781	H78	0.103200	0.530900	0.518700
C1401	C140	0.219560	0.996100	0.448100
C1411	C141	0.407670	0.746100	0.404500
H791	H79	0.411200	0.735500	0.459800
C1421	C142	0.456900	0.742800	0.385500
H801	H80	0.493400	0.731000	0.427900
C1431	C143	0.269800	0.095000	0.549400
H811	H81	0.297100	0.108800	0.603200
C1441	C144	0.259500	0.017800	0.527600
H821	H82	0.279900	0.980400	0.567200
C1451	C145	0.189900	0.052800	0.391600
H831	H83	0.162300	0.039800	0.337800
C1461	C146	0.200800	0.129800	0.414600
H841	H84	0.180600	0.167700	0.375600
C1471	C147	0.240100	0.150200	0.492300
Mg71	Mg7	0.170160	0.799560	0.282950
N191	N19	0.986220	0.526940	0.475500
N201	N20	0.504210	0.754400	0.288000
N211	N21	0.262100	0.231300	0.527200
O371	O37	0.255470	0.801450	0.307180
O381	O38	0.302960	0.743290	0.432560
O391	O39	0.238300	0.866260	0.479320
O401	O40	0.175340	0.898390	0.348170
O411	O41	0.090520	0.768350	0.293070
O421	O42	0.174100	0.727250	0.388380
C1481	C148	0.618040	0.227880	0.356700
C1491	C149	0.710230	0.413410	0.423900
C1501	C150	0.585440	0.176640	0.393000
C1511	C151	0.853370	0.265100	0.342400
C1521	C152	0.799740	0.270200	0.363400
C1531	C153	0.524870	0.184700	0.365900
H851	H85	0.505300	0.223400	0.327700
C1541	C154	0.848350	0.279700	0.260300
H861	H86	0.812000	0.292900	0.218400
C1551	C155	0.896620	0.275100	0.239400
H871	H87	0.892500	0.283800	0.183500
C1561	C156	0.523200	0.077300	0.452000
C1571	C157	0.614270	0.119700	0.450700
H881	H88	0.654800	0.115100	0.469900
C1581	C158	0.493980	0.135400	0.395600
H891	H89	0.453600	0.141100	0.377800
C1591	C159	0.951210	0.257300	0.302100
C1601	C160	0.583610	0.069500	0.480300
H901	H90	0.603200	0.030900	0.518700
C1611	C161	0.719560	0.496100	0.448100
C1621	C162	0.907670	0.246100	0.404500
H911	H91	0.911200	0.235500	0.459800
C1631	C163	0.956900	0.242800	0.385500
H921	H92	0.993400	0.231000	0.427900
C1641	C164	0.769800	0.595000	0.549400
H931	H93	0.797100	0.608800	0.603200
C1651	C165	0.759500	0.517800	0.527600
H941	H94	0.779900	0.480400	0.567200
C1661	C166	0.689900	0.552800	0.391600
H951	H95	0.662300	0.539800	0.337800
C1671	C167	0.700800	0.629800	0.414600
H961	H96	0.680600	0.667700	0.375600
C1681	C168	0.740100	0.650200	0.492300
Mg81	Mg8	0.670160	0.299560	0.282950
N221	N22	0.486220	0.026940	0.475500
N231	N23	0.004210	0.254400	0.288000
N241	N24	0.762100	0.731300	0.527200
O431	O43	0.755470	0.301450	0.307180
O441	O44	0.802960	0.243290	0.432560
O451	O45	0.738300	0.366260	0.479320
O461	O46	0.675340	0.398390	0.348170
O471	O47	0.590520	0.268350	0.293070
O481	O48	0.674100	0.227250	0.388380
Mg91	Mg9	0.250000	0.250000	0.000000
Mg101	Mg10	0.750000	0.250000	0.500000
Mg111	Mg11	0.750000	0.750000	0.000000
Mg121	Mg12	0.250000	0.750000	0.500000
