data_UTEMAJ_clean_PM
_symmetry_space_group_name_H-M	'P1'
_cell_length_a	12.978500
_cell_length_b	11.719700
_cell_length_c	27.087000
_cell_angle_alpha	90.000000
_cell_angle_beta	105.699000
_cell_angle_gamma	90.000000
_symmetry_Int_Tables_number 1

loop_
_symmetry_equiv_pos_as_xyz
'x,y,z'

loop_
_atom_site_label
_atom_site_type_symbol
_atom_site_fract_x
_atom_site_fract_y
_atom_site_fract_z
C11	C1	0.104800	0.259600	0.005290
C21	C2	0.798300	0.323900	0.979130
C31	C3	0.204500	0.201900	0.999030
C41	C4	0.708700	0.367800	0.936690
C51	C5	0.217000	0.083900	0.006740
H11	H1	0.161900	0.041200	0.013400
C61	C6	0.159300	0.535800	0.661540
C71	C7	0.310500	0.030700	0.004420
H21	H2	0.319100	0.952500	0.010000
C81	C8	0.698500	0.483400	0.925710
H31	H3	0.748600	0.534400	0.944800
C91	C9	0.390900	0.094700	0.993810
C101	C10	0.549300	0.331700	0.869040
H41	H4	0.498600	0.280600	0.850500
C111	C11	0.614100	0.523100	0.886530
H51	H5	0.606600	0.600900	0.879800
C121	C12	0.284300	0.263400	0.987790
H61	H6	0.275500	0.341600	0.982300
C131	C13	0.189500	0.423700	0.668910
H71	H7	0.155000	0.369700	0.645000
C141	C14	0.077400	0.572500	0.613230
C151	C15	0.540600	0.446500	0.857200
C161	C16	0.269800	0.388700	0.710970
H81	H8	0.288600	0.312100	0.715400
C171	C17	0.634000	0.292500	0.908800
H91	H9	0.640100	0.215100	0.916500
C181	C18	0.377800	0.212000	0.984370
H101	H10	0.431100	0.254500	0.975900
C191	C19	0.321800	0.468700	0.746370
C201	C20	0.210000	0.615000	0.697710
H111	H11	0.188700	0.691000	0.693800
C211	C21	0.293000	0.582500	0.740050
H121	H12	0.328400	0.636700	0.763700
Mg11	Mg1	0.929780	0.248310	0.056310
N11	N1	0.458700	0.496700	0.816220
N21	N2	0.404500	0.422100	0.788160
N31	N3	0.491400	0.049400	0.991070
O11	O1	0.798080	0.220570	0.991930
O21	O2	0.872790	0.389320	0.003310
O31	O3	0.049570	0.498140	0.578340
O41	O4	0.043400	0.672500	0.610840
O51	O5	0.097460	0.363770	0.997620
O61	O6	0.037170	0.198030	0.018300
C221	C22	0.895200	0.259600	0.494710
C231	C23	0.201700	0.323900	0.520870
C241	C24	0.795500	0.201900	0.500970
C251	C25	0.291300	0.367800	0.563310
C261	C26	0.783000	0.083900	0.493260
H131	H13	0.838100	0.041200	0.486600
C271	C27	0.840700	0.535800	0.838460
C281	C28	0.689500	0.030700	0.495580
H141	H14	0.680900	0.952500	0.490000
C291	C29	0.301500	0.483400	0.574290
H151	H15	0.251400	0.534400	0.555200
C301	C30	0.609100	0.094700	0.506190
C311	C31	0.450700	0.331700	0.630960
H161	H16	0.501400	0.280600	0.649500
C321	C32	0.385900	0.523100	0.613470
H171	H17	0.393400	0.600900	0.620200
C331	C33	0.715700	0.263400	0.512210
H181	H18	0.724500	0.341600	0.517700
C341	C34	0.810500	0.423700	0.831090
H191	H19	0.845000	0.369700	0.855000
C351	C35	0.922600	0.572500	0.886770
C361	C36	0.459400	0.446500	0.642800
C371	C37	0.730200	0.388700	0.789030
H201	H20	0.711400	0.312100	0.784600
C381	C38	0.366000	0.292500	0.591200
H211	H21	0.359900	0.215100	0.583500
C391	C39	0.622200	0.212000	0.515630
H221	H22	0.568900	0.254500	0.524100
C401	C40	0.678200	0.468700	0.753630
C411	C41	0.790000	0.615000	0.802290
H231	H23	0.811300	0.691000	0.806200
C421	C42	0.707000	0.582500	0.759950
H241	H24	0.671600	0.636700	0.736300
Mg21	Mg2	0.070220	0.248310	0.443690
N41	N4	0.541300	0.496700	0.683780
N51	N5	0.595500	0.422100	0.711840
N61	N6	0.508600	0.049400	0.508930
O71	O7	0.201920	0.220570	0.508070
O81	O8	0.127210	0.389320	0.496690
O91	O9	0.950430	0.498140	0.921660
O101	O10	0.956600	0.672500	0.889160
O111	O11	0.902540	0.363770	0.502380
O121	O12	0.962830	0.198030	0.481700
C431	C43	0.895200	0.740400	0.994710
C441	C44	0.201700	0.676100	0.020870
C451	C45	0.795500	0.798100	0.000970
C461	C46	0.291300	0.632200	0.063310
C471	C47	0.783000	0.916100	0.993260
H251	H25	0.838100	0.958800	0.986600
C481	C48	0.840700	0.464200	0.338460
C491	C49	0.689500	0.969300	0.995580
H261	H26	0.680900	0.047500	0.990000
C501	C50	0.301500	0.516600	0.074290
H271	H27	0.251400	0.465600	0.055200
C511	C51	0.609100	0.905300	0.006190
C521	C52	0.450700	0.668300	0.130960
H281	H28	0.501400	0.719400	0.149500
C531	C53	0.385900	0.476900	0.113470
H291	H29	0.393400	0.399100	0.120200
C541	C54	0.715700	0.736600	0.012210
H301	H30	0.724500	0.658400	0.017700
C551	C55	0.810500	0.576300	0.331090
H311	H31	0.845000	0.630300	0.355000
C561	C56	0.922600	0.427500	0.386770
C571	C57	0.459400	0.553500	0.142800
C581	C58	0.730200	0.611300	0.289030
H321	H32	0.711400	0.687900	0.284600
C591	C59	0.366000	0.707500	0.091200
H331	H33	0.359900	0.784900	0.083500
C601	C60	0.622200	0.788000	0.015630
H341	H34	0.568900	0.745500	0.024100
C611	C61	0.678200	0.531300	0.253630
C621	C62	0.790000	0.385000	0.302290
H351	H35	0.811300	0.309000	0.306200
C631	C63	0.707000	0.417500	0.259950
H361	H36	0.671600	0.363300	0.236300
Mg31	Mg3	0.070220	0.751690	0.943690
N71	N7	0.541300	0.503300	0.183780
N81	N8	0.595500	0.577900	0.211840
N91	N9	0.508600	0.950600	0.008930
O131	O13	0.201920	0.779430	0.008070
O141	O14	0.127210	0.610680	0.996690
O151	O15	0.950430	0.501860	0.421660
O161	O16	0.956600	0.327500	0.389160
O171	O17	0.902540	0.636230	0.002380
O181	O18	0.962830	0.801970	0.981700
C641	C64	0.104800	0.740400	0.505290
C651	C65	0.798300	0.676100	0.479130
C661	C66	0.204500	0.798100	0.499030
C671	C67	0.708700	0.632200	0.436690
C681	C68	0.217000	0.916100	0.506740
H371	H37	0.161900	0.958800	0.513400
C691	C69	0.159300	0.464200	0.161540
C701	C70	0.310500	0.969300	0.504420
H381	H38	0.319100	0.047500	0.510000
C711	C71	0.698500	0.516600	0.425710
H391	H39	0.748600	0.465600	0.444800
C721	C72	0.390900	0.905300	0.493810
C731	C73	0.549300	0.668300	0.369040
H401	H40	0.498600	0.719400	0.350500
C741	C74	0.614100	0.476900	0.386530
H411	H41	0.606600	0.399100	0.379800
C751	C75	0.284300	0.736600	0.487790
H421	H42	0.275500	0.658400	0.482300
C761	C76	0.189500	0.576300	0.168910
H431	H43	0.155000	0.630300	0.145000
C771	C77	0.077400	0.427500	0.113230
C781	C78	0.540600	0.553500	0.357200
C791	C79	0.269800	0.611300	0.210970
H441	H44	0.288600	0.687900	0.215400
C801	C80	0.634000	0.707500	0.408800
H451	H45	0.640100	0.784900	0.416500
C811	C81	0.377800	0.788000	0.484370
H461	H46	0.431100	0.745500	0.475900
C821	C82	0.321800	0.531300	0.246370
C831	C83	0.210000	0.385000	0.197710
H471	H47	0.188700	0.309000	0.193800
C841	C84	0.293000	0.417500	0.240050
H481	H48	0.328400	0.363300	0.263700
Mg41	Mg4	0.929780	0.751690	0.556310
N101	N10	0.458700	0.503300	0.316220
N111	N11	0.404500	0.577900	0.288160
N121	N12	0.491400	0.950600	0.491070
O191	O19	0.798080	0.779430	0.491930
O201	O20	0.872790	0.610680	0.503310
O211	O21	0.049570	0.501860	0.078340
O221	O22	0.043400	0.327500	0.110840
O231	O23	0.097460	0.636230	0.497620
O241	O24	0.037170	0.801970	0.518300
Mg51	Mg5	0.000000	0.500000	0.000000
Mg61	Mg6	0.000000	0.500000	0.500000
