data_UTOTUT_clean_PM
_symmetry_space_group_name_H-M	'P1'
_cell_length_a	6.409400
_cell_length_b	14.857000
_cell_length_c	16.066000
_cell_angle_alpha	90.000000
_cell_angle_beta	90.000000
_cell_angle_gamma	90.000000
_symmetry_Int_Tables_number 1

loop_
_symmetry_equiv_pos_as_xyz
'x,y,z'

loop_
_atom_site_label
_atom_site_type_symbol
_atom_site_fract_x
_atom_site_fract_y
_atom_site_fract_z
Cu11	Cu1	0.757700	0.591840	0.636070
Cu21	Cu2	0.010370	0.757040	0.505510
Cu31	Cu3	0.742300	0.408160	0.136070
Cu41	Cu4	0.489630	0.242960	0.005510
Cu51	Cu5	0.242300	0.091840	0.863930
Cu61	Cu6	0.989630	0.257040	0.994490
Cu71	Cu7	0.257700	0.908160	0.363930
Cu81	Cu8	0.510370	0.742960	0.494490
H11	H1	0.140700	0.482800	0.741900
H21	H2	0.373000	0.485100	0.742300
H31	H3	0.734900	0.576000	0.899600
H41	H4	0.734600	0.735700	0.103600
H51	H5	0.735800	0.845300	0.873900
H61	H6	0.359300	0.517200	0.241900
H71	H7	0.127000	0.514900	0.242300
H81	H8	0.765100	0.424000	0.399600
H91	H9	0.765400	0.264300	0.603600
H101	H10	0.764200	0.154700	0.373900
H111	H11	0.859300	0.982800	0.758100
H121	H12	0.627000	0.985100	0.757700
H131	H13	0.265100	0.076000	0.600400
H141	H14	0.265400	0.235700	0.396400
H151	H15	0.264200	0.345300	0.626100
H161	H16	0.640700	0.017200	0.258100
H171	H17	0.873000	0.014900	0.257700
H181	H18	0.234900	0.924000	0.100400
H191	H19	0.234600	0.764300	0.896400
H201	H20	0.235800	0.654700	0.126100
C11	C1	0.739100	0.708900	0.872400
C21	C2	0.735100	0.633000	0.923500
C31	C3	0.731400	0.641300	0.010300
C41	C4	0.733000	0.728100	0.046200
C51	C5	0.732000	0.800900	0.993100
C61	C6	0.735700	0.794200	0.907300
C71	C7	0.737300	0.698100	0.778000
C81	C8	0.728400	0.561100	0.066600
C91	C9	0.253200	0.569600	0.664700
C101	C10	0.760900	0.291100	0.372400
C111	C11	0.764900	0.367000	0.423500
C121	C12	0.768600	0.358700	0.510300
C131	C13	0.767000	0.271900	0.546200
C141	C14	0.768000	0.199100	0.493100
C151	C15	0.764300	0.205800	0.407300
C161	C16	0.762700	0.301900	0.278000
C171	C17	0.771600	0.438900	0.566600
C181	C18	0.246800	0.430400	0.164700
C191	C19	0.260900	0.208900	0.627600
C201	C20	0.264900	0.133000	0.576500
C211	C21	0.268600	0.141300	0.489700
C221	C22	0.267000	0.228100	0.453800
C231	C23	0.268000	0.300900	0.506900
C241	C24	0.264300	0.294200	0.592700
C251	C25	0.262700	0.198100	0.722000
C261	C26	0.271600	0.061100	0.433400
C271	C27	0.746800	0.069600	0.835300
C281	C28	0.239100	0.791100	0.127600
C291	C29	0.235100	0.867000	0.076500
C301	C30	0.231400	0.858700	0.989700
C311	C31	0.233000	0.771900	0.953800
C321	C32	0.232000	0.699100	0.006900
C331	C33	0.235700	0.705800	0.092700
C341	C34	0.237300	0.801900	0.222000
C351	C35	0.228400	0.938900	0.933400
C361	C36	0.753200	0.930400	0.335300
N11	N1	0.084200	0.605300	0.630500
N21	N2	0.433000	0.604900	0.629600
N31	N3	0.358900	0.662200	0.571800
N41	N4	0.157100	0.664700	0.574700
N51	N5	0.256000	0.504700	0.723400
N61	N6	0.730600	0.891900	0.032500
N71	N7	0.415800	0.394700	0.130500
N81	N8	0.067000	0.395100	0.129600
N91	N9	0.141100	0.337800	0.071800
N101	N10	0.342900	0.335300	0.074700
N111	N11	0.244000	0.495300	0.223400
N121	N12	0.769400	0.108100	0.532500
N131	N13	0.915800	0.105300	0.869500
N141	N14	0.567000	0.104900	0.870400
N151	N15	0.641100	0.162200	0.928200
N161	N16	0.842900	0.164700	0.925300
N171	N17	0.744000	0.004700	0.776600
N181	N18	0.269400	0.391900	0.467500
N191	N19	0.584200	0.894700	0.369500
N201	N20	0.933000	0.895100	0.370400
N211	N21	0.858900	0.837800	0.428200
N221	N22	0.657100	0.835300	0.425300
N231	N23	0.756000	0.995300	0.276600
N241	N24	0.230600	0.608100	0.967500
O11	O1	0.757500	0.618200	0.752500
O21	O2	0.737300	0.482500	0.032800
O31	O3	0.754900	0.726300	0.563400
O41	O4	0.719300	0.571500	0.142200
O51	O5	0.722000	0.765800	0.733100
O61	O6	0.730700	0.896100	0.107800
O71	O7	0.740700	0.956700	0.985800
O81	O8	0.742500	0.381800	0.252500
O91	O9	0.762700	0.517500	0.532800
O101	O10	0.745100	0.273700	0.063400
O111	O11	0.780700	0.428500	0.642200
O121	O12	0.778000	0.234200	0.233100
O131	O13	0.769300	0.103900	0.607800
O141	O14	0.759300	0.043300	0.485800
O151	O15	0.242500	0.118200	0.747500
O161	O16	0.262700	0.982500	0.467200
O171	O17	0.245100	0.226300	0.936600
O181	O18	0.280700	0.071500	0.357800
O191	O19	0.278000	0.265800	0.766900
O201	O20	0.269300	0.396100	0.392200
O211	O21	0.259300	0.456700	0.514200
O221	O22	0.257500	0.881800	0.247500
O231	O23	0.237300	0.017500	0.967200
O241	O24	0.254900	0.773700	0.436600
O251	O25	0.219300	0.928500	0.857800
O261	O26	0.222000	0.734200	0.266900
O271	O27	0.230700	0.603900	0.892200
O281	O28	0.240700	0.543300	0.014200
