data_UVANUC_clean_PM
_symmetry_space_group_name_H-M	'P1'
_cell_length_a	9.376500
_cell_length_b	10.080700
_cell_length_c	18.629000
_cell_angle_alpha	86.471000
_cell_angle_beta	89.112000
_cell_angle_gamma	74.752000
_symmetry_Int_Tables_number 1

loop_
_symmetry_equiv_pos_as_xyz
'x,y,z'

loop_
_atom_site_label
_atom_site_type_symbol
_atom_site_fract_x
_atom_site_fract_y
_atom_site_fract_z
C11	C1	0.762900	0.935800	0.841100
C21	C2	0.820400	0.046000	0.817000
C31	C3	0.971700	0.022100	0.804300
H11	H1	0.010600	0.096400	0.787400
C41	C4	0.066000	0.891700	0.815900
C51	C5	0.009000	0.784200	0.840900
H21	H2	0.074100	0.695300	0.850200
C61	C6	0.858000	0.803700	0.853000
C71	C7	0.725200	0.190700	0.804800
C81	C8	0.229200	0.870900	0.803400
C91	C9	0.805300	0.681600	0.881200
C101	C10	0.577100	0.946100	0.934400
H31	H3	0.640200	0.856000	0.954600
C111	C11	0.417000	0.947000	0.946900
H41	H4	0.396200	0.867400	0.924600
H51	H5	0.352000	0.032300	0.923900
C121	C12	0.615800	0.060500	0.973200
H61	H6	0.722200	0.054400	0.966200
H71	H7	0.558800	0.150700	0.951600
C131	C13	0.775500	0.374500	0.653000
C141	C14	0.806600	0.491900	0.678590
C151	C15	0.951100	0.491400	0.693900
H81	H8	0.971500	0.571900	0.710300
C161	C16	0.066000	0.374800	0.685500
C171	C17	0.036100	0.258100	0.662200
H91	H9	0.114900	0.177600	0.657700
C181	C18	0.892900	0.255000	0.645050
C191	C19	0.691400	0.617600	0.699600
C201	C20	0.221500	0.377700	0.703000
C211	C21	0.870000	0.122700	0.619300
C221	C22	0.565100	0.474000	0.572700
H101	H10	0.566500	0.569300	0.584000
C231	C23	0.407800	0.471800	0.559900
H111	H11	0.347500	0.503200	0.602800
H121	H12	0.404200	0.376300	0.552600
C241	C24	0.657000	0.435200	0.505900
H131	H13	0.662500	0.338400	0.496400
H141	H14	0.758800	0.442000	0.514200
Cd11	Cd1	0.522720	0.823890	0.776410
Cd21	Cd2	0.486630	0.415410	0.744450
N11	N1	0.608700	0.957800	0.855830
H151	H15	0.561700	0.055900	0.839700
N21	N2	0.627900	0.376900	0.635620
H161	H16	0.629400	0.282200	0.621800
O11	O1	0.590600	0.203500	0.788510
O21	O2	0.779100	0.290000	0.808660
O31	O3	0.274700	0.969200	0.777900
O41	O4	0.315900	0.754600	0.820250
O51	O5	0.890400	0.598600	0.924430
O61	O6	0.683100	0.667300	0.860540
O71	O7	0.563400	0.608200	0.721180
O81	O8	0.725000	0.728300	0.700630
O91	O9	0.241100	0.487900	0.725200
O101	O10	0.325600	0.274700	0.693970
O111	O11	0.982200	0.036300	0.597700
O121	O12	0.742600	0.103700	0.620700
C251	C25	0.237100	0.064200	0.158900
C261	C26	0.179600	0.954000	0.183000
C271	C27	0.028300	0.977900	0.195700
H171	H17	0.989400	0.903600	0.212600
C281	C28	0.934000	0.108300	0.184100
C291	C29	0.991000	0.215800	0.159100
H181	H18	0.925900	0.304700	0.149800
C301	C30	0.142000	0.196300	0.147000
C311	C31	0.274800	0.809300	0.195200
C321	C32	0.770800	0.129100	0.196600
C331	C33	0.194700	0.318400	0.118800
C341	C34	0.422900	0.053900	0.065600
H191	H19	0.359800	0.144000	0.045400
C351	C35	0.583000	0.053000	0.053100
H201	H20	0.603800	0.132600	0.075400
H211	H21	0.648000	0.967700	0.076100
C361	C36	0.384200	0.939500	0.026800
H221	H22	0.277800	0.945600	0.033800
H231	H23	0.441200	0.849300	0.048400
C371	C37	0.224500	0.625500	0.347000
C381	C38	0.193400	0.508100	0.321410
C391	C39	0.048900	0.508600	0.306100
H241	H24	0.028500	0.428100	0.289700
C401	C40	0.934000	0.625200	0.314500
C411	C41	0.963900	0.741900	0.337800
H251	H25	0.885100	0.822400	0.342300
C421	C42	0.107100	0.745000	0.354950
C431	C43	0.308600	0.382400	0.300400
C441	C44	0.778500	0.622300	0.297000
C451	C45	0.130000	0.877300	0.380700
C461	C46	0.434900	0.526000	0.427300
H261	H26	0.433500	0.430700	0.416000
C471	C47	0.592200	0.528200	0.440100
H271	H27	0.652500	0.496800	0.397200
H281	H28	0.595800	0.623700	0.447400
C481	C48	0.343000	0.564800	0.494100
H291	H29	0.337500	0.661600	0.503600
H301	H30	0.241200	0.558000	0.485800
Cd31	Cd3	0.477280	0.176110	0.223590
Cd41	Cd4	0.513370	0.584590	0.255550
N31	N3	0.391300	0.042200	0.144170
H311	H31	0.438300	0.944100	0.160300
N41	N4	0.372100	0.623100	0.364380
H321	H32	0.370600	0.717800	0.378200
O131	O13	0.409400	0.796500	0.211490
O141	O14	0.220900	0.710000	0.191340
O151	O15	0.725300	0.030800	0.222100
O161	O16	0.684100	0.245400	0.179750
O171	O17	0.109600	0.401400	0.075570
O181	O18	0.316900	0.332700	0.139460
O191	O19	0.436600	0.391800	0.278820
O201	O20	0.275000	0.271700	0.299370
O211	O21	0.758900	0.512100	0.274800
O221	O22	0.674400	0.725300	0.306030
O231	O23	0.017800	0.963700	0.402300
O241	O24	0.257400	0.896300	0.379300
