data_UVANOW_clean_PM
_symmetry_space_group_name_H-M	'P1'
_cell_length_a	33.463000
_cell_length_b	18.874000
_cell_length_c	20.335000
_cell_angle_alpha	90.000000
_cell_angle_beta	92.333000
_cell_angle_gamma	90.000000
_symmetry_Int_Tables_number 1

loop_
_symmetry_equiv_pos_as_xyz
'x,y,z'

loop_
_atom_site_label
_atom_site_type_symbol
_atom_site_fract_x
_atom_site_fract_y
_atom_site_fract_z
Ag11	Ag1	0.074080	0.879220	0.225280
Ag21	Ag2	0.595800	0.633100	0.755400
Ag31	Ag3	0.819580	0.865090	0.482270
Ag41	Ag4	0.662920	0.171320	0.538280
C11	C1	0.865400	0.167200	0.412000
C21	C2	0.896800	0.185400	0.453500
H11	H1	0.919600	0.155900	0.460600
C31	C3	0.892800	0.249800	0.484300
C41	C4	0.861600	0.295900	0.473500
H21	H2	0.860700	0.341000	0.494100
C51	C5	0.832100	0.272600	0.431200
C61	C6	0.833300	0.209400	0.397000
H31	H3	0.813100	0.196300	0.365100
C71	C7	0.897500	0.078100	0.347400
C81	C8	0.923600	0.119600	0.312800
C91	C9	0.956500	0.089900	0.282600
H41	H4	0.974600	0.118700	0.259500
C101	C10	0.962200	0.015700	0.287500
C111	C11	0.935300	0.973400	0.317700
H51	H5	0.938700	0.923400	0.318500
C121	C12	0.902500	0.004700	0.347600
C131	C13	0.919200	0.194700	0.299200
C141	C14	0.997400	0.985800	0.260400
C151	C15	0.874200	0.962400	0.378800
C161	C16	0.961300	0.255100	0.522100
C171	C17	0.982200	0.284200	0.469200
C181	C18	0.021900	0.267000	0.461900
H61	H6	0.035600	0.284800	0.425300
C191	C19	0.041700	0.224000	0.507500
C201	C20	0.021500	0.197400	0.561800
H71	H7	0.035400	0.168900	0.593700
C211	C21	0.981900	0.212600	0.568900
C221	C22	0.962600	0.336700	0.426400
C231	C23	0.083200	0.207900	0.499300
C241	C24	0.959900	0.184900	0.623500
C251	C25	0.776300	0.312900	0.365800
C261	C26	0.789400	0.339100	0.305500
C271	C27	0.765600	0.335400	0.249700
H81	H8	0.774700	0.354100	0.209600
C281	C28	0.728200	0.304300	0.251800
C291	C29	0.713800	0.278600	0.309200
H91	H9	0.687800	0.258400	0.309800
C301	C30	0.737800	0.282500	0.366800
C311	C31	0.828500	0.372300	0.303400
C321	C32	0.703700	0.299700	0.191300
C331	C33	0.723600	0.254300	0.427800
C341	C34	0.681500	0.760700	0.613200
C351	C35	0.672500	0.817300	0.649500
H101	H10	0.689700	0.833300	0.684800
C361	C36	0.637200	0.851100	0.632900
C371	C37	0.609900	0.826500	0.587400
H111	H11	0.584600	0.848500	0.579900
C381	C38	0.621100	0.768700	0.553200
C391	C39	0.656500	0.732700	0.564900
H121	H12	0.663100	0.691300	0.541100
C401	C40	0.726400	0.662800	0.605400
C411	C41	0.754500	0.656300	0.555800
C421	C42	0.764100	0.587800	0.532900
H131	H13	0.783200	0.582300	0.499900
C431	C43	0.745800	0.529000	0.558700
C441	C44	0.718900	0.537600	0.609800
H141	H14	0.707300	0.496900	0.629000
C451	C45	0.709200	0.602400	0.631700
C461	C46	0.771800	0.717700	0.529600
C471	C47	0.752500	0.459800	0.533500
C481	C48	0.681600	0.608500	0.683400
C491	C49	0.591400	0.931000	0.681600
C501	C50	0.581300	0.999500	0.665100
C511	C51	0.543800	0.027000	0.681500
H151	H15	0.537400	0.075100	0.672000
C521	C52	0.516500	0.983900	0.711400
C531	C53	0.526100	0.914200	0.726500
H161	H16	0.507000	0.884300	0.745800
C541	C54	0.562500	0.889000	0.713900
C551	C55	0.609400	0.042900	0.631500
C561	C56	0.478900	0.013200	0.727400
C571	C57	0.573000	0.815900	0.734400
C581	C58	0.555800	0.749300	0.502700
C591	C59	0.533400	0.716600	0.550700
C601	C60	0.492500	0.722800	0.548200
H171	H17	0.476900	0.699500	0.579700
C611	C61	0.474000	0.764500	0.497900
C621	C62	0.496200	0.791800	0.447800
H181	H18	0.483400	0.814500	0.411000
C631	C63	0.536600	0.785400	0.452500
C641	C64	0.551900	0.667300	0.598500
C651	C65	0.431600	0.772100	0.494700
C661	C66	0.561000	0.815600	0.402300
N11	N1	0.914900	0.254200	0.293800
N21	N2	0.025400	0.961500	0.239300
N31	N3	0.851200	0.927800	0.406700
N41	N4	0.946500	0.374600	0.393700
N51	N5	0.115800	0.197500	0.492900
N61	N6	0.943400	0.163600	0.666800
N71	N7	0.859300	0.394800	0.299300
N81	N8	0.687400	0.298700	0.142000
N91	N9	0.710200	0.230400	0.472500
N101	N10	0.786000	0.765600	0.506700
N111	N11	0.754300	0.405500	0.508900
N121	N12	0.658300	0.617500	0.721500
N131	N13	0.631600	0.072500	0.603100
N141	N14	0.449000	0.038500	0.739400
N151	N15	0.582900	0.759600	0.741100
N161	N16	0.569100	0.637300	0.637800
N171	N17	0.397900	0.778800	0.493700
N181	N18	0.581300	0.838200	0.363800
O11	O1	0.865600	0.101700	0.378100
O21	O2	0.922500	0.272000	0.531900
O31	O3	0.799000	0.318800	0.421700
O41	O4	0.719100	0.730000	0.629100
O51	O5	0.629400	0.910500	0.671500
O61	O6	0.596500	0.738800	0.501200
Ag51	Ag5	0.925920	0.379220	0.274720
Ag61	Ag6	0.404200	0.133100	0.744600
Ag71	Ag7	0.180420	0.365090	0.017730
Ag81	Ag8	0.337080	0.671320	0.961720
C671	C67	0.134600	0.667200	0.088000
C681	C68	0.103200	0.685400	0.046500
H191	H19	0.080400	0.655900	0.039400
C691	C69	0.107200	0.749800	0.015700
C701	C70	0.138400	0.795900	0.026500
H201	H20	0.139300	0.841000	0.005900
C711	C71	0.167900	0.772600	0.068800
C721	C72	0.166700	0.709400	0.103000
H211	H21	0.186900	0.696300	0.134900
C731	C73	0.102500	0.578100	0.152600
C741	C74	0.076400	0.619600	0.187200
C751	C75	0.043500	0.589900	0.217400
H221	H22	0.025400	0.618700	0.240500
C761	C76	0.037800	0.515700	0.212500
C771	C77	0.064700	0.473400	0.182300
H231	H23	0.061300	0.423400	0.181500
C781	C78	0.097500	0.504700	0.152400
C791	C79	0.080800	0.694700	0.200800
C801	C80	0.002600	0.485800	0.239600
C811	C81	0.125800	0.462400	0.121200
C821	C82	0.038700	0.755100	0.977900
C831	C83	0.017800	0.784200	0.030800
C841	C84	0.978100	0.767000	0.038100
H241	H24	0.964400	0.784800	0.074700
C851	C85	0.958300	0.724000	0.992500
C861	C86	0.978500	0.697400	0.938200
H251	H25	0.964600	0.668900	0.906300
C871	C87	0.018100	0.712600	0.931100
C881	C88	0.037400	0.836700	0.073600
C891	C89	0.916800	0.707900	0.000700
C901	C90	0.040100	0.684900	0.876500
C911	C91	0.223700	0.812900	0.134200
C921	C92	0.210600	0.839100	0.194500
C931	C93	0.234400	0.835400	0.250300
H261	H26	0.225300	0.854100	0.290400
C941	C94	0.271800	0.804300	0.248200
C951	C95	0.286200	0.778600	0.190800
H271	H27	0.312200	0.758400	0.190200
C961	C96	0.262200	0.782500	0.133200
C971	C97	0.171500	0.872300	0.196600
C981	C98	0.296300	0.799700	0.308700
C991	C99	0.276400	0.754300	0.072200
C1001	C100	0.318500	0.260700	0.886800
C1011	C101	0.327500	0.317300	0.850500
H281	H28	0.310300	0.333300	0.815200
C1021	C102	0.362800	0.351100	0.867100
C1031	C103	0.390100	0.326500	0.912600
H291	H29	0.415400	0.348500	0.920100
C1041	C104	0.378900	0.268700	0.946800
C1051	C105	0.343500	0.232700	0.935100
H301	H30	0.336900	0.191300	0.958900
C1061	C106	0.273600	0.162800	0.894600
C1071	C107	0.245500	0.156300	0.944200
C1081	C108	0.235900	0.087800	0.967100
H311	H31	0.216800	0.082300	0.000100
C1091	C109	0.254200	0.029000	0.941300
C1101	C110	0.281100	0.037600	0.890200
H321	H32	0.292700	0.996900	0.871000
C1111	C111	0.290800	0.102400	0.868300
C1121	C112	0.228200	0.217700	0.970400
C1131	C113	0.247500	0.959800	0.966500
C1141	C114	0.318400	0.108500	0.816600
C1151	C115	0.408600	0.431000	0.818400
C1161	C116	0.418700	0.499500	0.834900
C1171	C117	0.456200	0.527000	0.818500
H331	H33	0.462600	0.575100	0.828000
C1181	C118	0.483500	0.483900	0.788600
C1191	C119	0.473900	0.414200	0.773500
H341	H34	0.493000	0.384300	0.754200
C1201	C120	0.437500	0.389000	0.786100
C1211	C121	0.390600	0.542900	0.868500
C1221	C122	0.521100	0.513200	0.772600
C1231	C123	0.427000	0.315900	0.765600
C1241	C124	0.444200	0.249300	0.997300
C1251	C125	0.466600	0.216600	0.949300
C1261	C126	0.507500	0.222800	0.951800
H351	H35	0.523100	0.199500	0.920300
C1271	C127	0.526000	0.264500	0.002100
C1281	C128	0.503800	0.291800	0.052200
H361	H36	0.516600	0.314500	0.089000
C1291	C129	0.463400	0.285400	0.047500
C1301	C130	0.448100	0.167300	0.901500
C1311	C131	0.568400	0.272100	0.005300
C1321	C132	0.439000	0.315600	0.097700
N191	N19	0.085100	0.754200	0.206200
N201	N20	0.974600	0.461500	0.260700
N211	N21	0.148800	0.427800	0.093300
N221	N22	0.053500	0.874600	0.106300
N231	N23	0.884200	0.697500	0.007100
N241	N24	0.056600	0.663600	0.833200
N251	N25	0.140700	0.894800	0.200700
N261	N26	0.312600	0.798700	0.358000
N271	N27	0.289800	0.730400	0.027500
N281	N28	0.214000	0.265600	0.993300
N291	N29	0.245700	0.905500	0.991100
N301	N30	0.341700	0.117500	0.778500
N311	N31	0.368400	0.572500	0.896900
N321	N32	0.551000	0.538500	0.760600
N331	N33	0.417100	0.259600	0.758900
N341	N34	0.430900	0.137300	0.862200
N351	N35	0.602100	0.278800	0.006300
N361	N36	0.418700	0.338200	0.136200
O71	O7	0.134400	0.601700	0.121900
O81	O8	0.077500	0.772000	0.968100
O91	O9	0.201000	0.818800	0.078300
O101	O10	0.280900	0.230000	0.870900
O111	O11	0.370600	0.410500	0.828500
O121	O12	0.403500	0.238800	0.998800
Ag91	Ag9	0.925920	0.120780	0.774720
Ag101	Ag10	0.404200	0.366900	0.244600
Ag111	Ag11	0.180420	0.134910	0.517730
Ag121	Ag12	0.337080	0.828680	0.461720
C1331	C133	0.134600	0.832800	0.588000
C1341	C134	0.103200	0.814600	0.546500
H371	H37	0.080400	0.844100	0.539400
C1351	C135	0.107200	0.750200	0.515700
C1361	C136	0.138400	0.704100	0.526500
H381	H38	0.139300	0.659000	0.505900
C1371	C137	0.167900	0.727400	0.568800
C1381	C138	0.166700	0.790600	0.603000
H391	H39	0.186900	0.803700	0.634900
C1391	C139	0.102500	0.921900	0.652600
C1401	C140	0.076400	0.880400	0.687200
C1411	C141	0.043500	0.910100	0.717400
H401	H40	0.025400	0.881300	0.740500
C1421	C142	0.037800	0.984300	0.712500
C1431	C143	0.064700	0.026600	0.682300
H411	H41	0.061300	0.076600	0.681500
C1441	C144	0.097500	0.995300	0.652400
C1451	C145	0.080800	0.805300	0.700800
C1461	C146	0.002600	0.014200	0.739600
C1471	C147	0.125800	0.037600	0.621200
C1481	C148	0.038700	0.744900	0.477900
C1491	C149	0.017800	0.715800	0.530800
C1501	C150	0.978100	0.733000	0.538100
H421	H42	0.964400	0.715200	0.574700
C1511	C151	0.958300	0.776000	0.492500
C1521	C152	0.978500	0.802600	0.438200
H431	H43	0.964600	0.831100	0.406300
C1531	C153	0.018100	0.787400	0.431100
C1541	C154	0.037400	0.663300	0.573600
C1551	C155	0.916800	0.792100	0.500700
C1561	C156	0.040100	0.815100	0.376500
C1571	C157	0.223700	0.687100	0.634200
C1581	C158	0.210600	0.660900	0.694500
C1591	C159	0.234400	0.664600	0.750300
H441	H44	0.225300	0.645900	0.790400
C1601	C160	0.271800	0.695700	0.748200
C1611	C161	0.286200	0.721400	0.690800
H451	H45	0.312200	0.741600	0.690200
C1621	C162	0.262200	0.717500	0.633200
C1631	C163	0.171500	0.627700	0.696600
C1641	C164	0.296300	0.700300	0.808700
C1651	C165	0.276400	0.745700	0.572200
C1661	C166	0.318500	0.239300	0.386800
C1671	C167	0.327500	0.182700	0.350500
H461	H46	0.310300	0.166700	0.315200
C1681	C168	0.362800	0.148900	0.367100
C1691	C169	0.390100	0.173500	0.412600
H471	H47	0.415400	0.151500	0.420100
C1701	C170	0.378900	0.231300	0.446800
C1711	C171	0.343500	0.267300	0.435100
H481	H48	0.336900	0.308700	0.458900
C1721	C172	0.273600	0.337200	0.394600
C1731	C173	0.245500	0.343700	0.444200
C1741	C174	0.235900	0.412200	0.467100
H491	H49	0.216800	0.417700	0.500100
C1751	C175	0.254200	0.471000	0.441300
C1761	C176	0.281100	0.462400	0.390200
H501	H50	0.292700	0.503100	0.371000
C1771	C177	0.290800	0.397600	0.368300
C1781	C178	0.228200	0.282300	0.470400
C1791	C179	0.247500	0.540200	0.466500
C1801	C180	0.318400	0.391500	0.316600
C1811	C181	0.408600	0.069000	0.318400
C1821	C182	0.418700	0.000500	0.334900
C1831	C183	0.456200	0.973000	0.318500
H511	H51	0.462600	0.924900	0.328000
C1841	C184	0.483500	0.016100	0.288600
C1851	C185	0.473900	0.085800	0.273500
H521	H52	0.493000	0.115700	0.254200
C1861	C186	0.437500	0.111000	0.286100
C1871	C187	0.390600	0.957100	0.368500
C1881	C188	0.521100	0.986800	0.272600
C1891	C189	0.427000	0.184100	0.265600
C1901	C190	0.444200	0.250700	0.497300
C1911	C191	0.466600	0.283400	0.449300
C1921	C192	0.507500	0.277200	0.451800
H531	H53	0.523100	0.300500	0.420300
C1931	C193	0.526000	0.235500	0.502100
C1941	C194	0.503800	0.208200	0.552200
H541	H54	0.516600	0.185500	0.589000
C1951	C195	0.463400	0.214600	0.547500
C1961	C196	0.448100	0.332700	0.401500
C1971	C197	0.568400	0.227900	0.505300
C1981	C198	0.439000	0.184400	0.597700
N371	N37	0.085100	0.745800	0.706200
N381	N38	0.974600	0.038500	0.760700
N391	N39	0.148800	0.072200	0.593300
N401	N40	0.053500	0.625400	0.606300
N411	N41	0.884200	0.802500	0.507100
N421	N42	0.056600	0.836400	0.333200
N431	N43	0.140700	0.605200	0.700700
N441	N44	0.312600	0.701300	0.858000
N451	N45	0.289800	0.769600	0.527500
N461	N46	0.214000	0.234400	0.493300
N471	N47	0.245700	0.594500	0.491100
N481	N48	0.341700	0.382500	0.278500
N491	N49	0.368400	0.927500	0.396900
N501	N50	0.551000	0.961500	0.260600
N511	N51	0.417100	0.240400	0.258900
N521	N52	0.430900	0.362700	0.362200
N531	N53	0.602100	0.221200	0.506300
N541	N54	0.418700	0.161800	0.636200
O131	O13	0.134400	0.898300	0.621900
O141	O14	0.077500	0.728000	0.468100
O151	O15	0.201000	0.681200	0.578300
O161	O16	0.280900	0.270000	0.370900
O171	O17	0.370600	0.089500	0.328500
O181	O18	0.403500	0.261200	0.498800
Ag131	Ag13	0.074080	0.620780	0.725280
Ag141	Ag14	0.595800	0.866900	0.255400
Ag151	Ag15	0.819580	0.634910	0.982270
Ag161	Ag16	0.662920	0.328680	0.038280
C1991	C199	0.865400	0.332800	0.912000
C2001	C200	0.896800	0.314600	0.953500
H551	H55	0.919600	0.344100	0.960600
C2011	C201	0.892800	0.250200	0.984300
C2021	C202	0.861600	0.204100	0.973500
H561	H56	0.860700	0.159000	0.994100
C2031	C203	0.832100	0.227400	0.931200
C2041	C204	0.833300	0.290600	0.897000
H571	H57	0.813100	0.303700	0.865100
C2051	C205	0.897500	0.421900	0.847400
C2061	C206	0.923600	0.380400	0.812800
C2071	C207	0.956500	0.410100	0.782600
H581	H58	0.974600	0.381300	0.759500
C2081	C208	0.962200	0.484300	0.787500
C2091	C209	0.935300	0.526600	0.817700
H591	H59	0.938700	0.576600	0.818500
C2101	C210	0.902500	0.495300	0.847600
C2111	C211	0.919200	0.305300	0.799200
C2121	C212	0.997400	0.514200	0.760400
C2131	C213	0.874200	0.537600	0.878800
C2141	C214	0.961300	0.244900	0.022100
C2151	C215	0.982200	0.215800	0.969200
C2161	C216	0.021900	0.233000	0.961900
H601	H60	0.035600	0.215200	0.925300
C2171	C217	0.041700	0.276000	0.007500
C2181	C218	0.021500	0.302600	0.061800
H611	H61	0.035400	0.331100	0.093700
C2191	C219	0.981900	0.287400	0.068900
C2201	C220	0.962600	0.163300	0.926400
C2211	C221	0.083200	0.292100	0.999300
C2221	C222	0.959900	0.315100	0.123500
C2231	C223	0.776300	0.187100	0.865800
C2241	C224	0.789400	0.160900	0.805500
C2251	C225	0.765600	0.164600	0.749700
H621	H62	0.774700	0.145900	0.709600
C2261	C226	0.728200	0.195700	0.751800
C2271	C227	0.713800	0.221400	0.809200
H631	H63	0.687800	0.241600	0.809800
C2281	C228	0.737800	0.217500	0.866800
C2291	C229	0.828500	0.127700	0.803400
C2301	C230	0.703700	0.200300	0.691300
C2311	C231	0.723600	0.245700	0.927800
C2321	C232	0.681500	0.739300	0.113200
C2331	C233	0.672500	0.682700	0.149500
H641	H64	0.689700	0.666700	0.184800
C2341	C234	0.637200	0.648900	0.132900
C2351	C235	0.609900	0.673500	0.087400
H651	H65	0.584600	0.651500	0.079900
C2361	C236	0.621100	0.731300	0.053200
C2371	C237	0.656500	0.767300	0.064900
H661	H66	0.663100	0.808700	0.041100
C2381	C238	0.726400	0.837200	0.105400
C2391	C239	0.754500	0.843700	0.055800
C2401	C240	0.764100	0.912200	0.032900
H671	H67	0.783200	0.917700	0.999900
C2411	C241	0.745800	0.971000	0.058700
C2421	C242	0.718900	0.962400	0.109800
H681	H68	0.707300	0.003100	0.129000
C2431	C243	0.709200	0.897600	0.131700
C2441	C244	0.771800	0.782300	0.029600
C2451	C245	0.752500	0.040200	0.033500
C2461	C246	0.681600	0.891500	0.183400
C2471	C247	0.591400	0.569000	0.181600
C2481	C248	0.581300	0.500500	0.165100
C2491	C249	0.543800	0.473000	0.181500
H691	H69	0.537400	0.424900	0.172000
C2501	C250	0.516500	0.516100	0.211400
C2511	C251	0.526100	0.585800	0.226500
H701	H70	0.507000	0.615700	0.245800
C2521	C252	0.562500	0.611000	0.213900
C2531	C253	0.609400	0.457100	0.131500
C2541	C254	0.478900	0.486800	0.227400
C2551	C255	0.573000	0.684100	0.234400
C2561	C256	0.555800	0.750700	0.002700
C2571	C257	0.533400	0.783400	0.050700
C2581	C258	0.492500	0.777200	0.048200
H711	H71	0.476900	0.800500	0.079700
C2591	C259	0.474000	0.735500	0.997900
C2601	C260	0.496200	0.708200	0.947800
H721	H72	0.483400	0.685500	0.911000
C2611	C261	0.536600	0.714600	0.952500
C2621	C262	0.551900	0.832700	0.098500
C2631	C263	0.431600	0.727900	0.994700
C2641	C264	0.561000	0.684400	0.902300
N551	N55	0.914900	0.245800	0.793800
N561	N56	0.025400	0.538500	0.739300
N571	N57	0.851200	0.572200	0.906700
N581	N58	0.946500	0.125400	0.893700
N591	N59	0.115800	0.302500	0.992900
N601	N60	0.943400	0.336400	0.166800
N611	N61	0.859300	0.105200	0.799300
N621	N62	0.687400	0.201300	0.642000
N631	N63	0.710200	0.269600	0.972500
N641	N64	0.786000	0.734400	0.006700
N651	N65	0.754300	0.094500	0.008900
N661	N66	0.658300	0.882500	0.221500
N671	N67	0.631600	0.427500	0.103100
N681	N68	0.449000	0.461500	0.239400
N691	N69	0.582900	0.740400	0.241100
N701	N70	0.569100	0.862700	0.137800
N711	N71	0.397900	0.721200	0.993700
N721	N72	0.581300	0.661800	0.863800
O191	O19	0.865600	0.398300	0.878100
O201	O20	0.922500	0.228000	0.031900
O211	O21	0.799000	0.181200	0.921700
O221	O22	0.719100	0.770000	0.129100
O231	O23	0.629400	0.589500	0.171500
O241	O24	0.596500	0.761200	0.001200
