data_UVEVUN_clean_PM
_symmetry_space_group_name_H-M	'P1'
_cell_length_a	26.937700
_cell_length_b	26.937700
_cell_length_c	26.937700
_cell_angle_alpha	109.471000
_cell_angle_beta	109.471000
_cell_angle_gamma	109.471000
_symmetry_Int_Tables_number 1

loop_
_symmetry_equiv_pos_as_xyz
'x,y,z'

loop_
_atom_site_label
_atom_site_type_symbol
_atom_site_fract_x
_atom_site_fract_y
_atom_site_fract_z
Cu11	Cu1	0.819440	0.180560	0.000000
Cu21	Cu2	0.180560	0.819440	0.000000
Cu31	Cu3	0.819440	0.819440	0.638880
Cu41	Cu4	0.180560	0.180560	0.361120
Cu51	Cu5	0.638880	0.819440	0.819440
Cu61	Cu6	0.361120	0.180560	0.180560
Cu71	Cu7	0.000000	0.819440	0.180560
Cu81	Cu8	0.000000	0.180560	0.819440
Cu91	Cu9	0.819440	0.000000	0.180560
Cu101	Cu10	0.180560	0.000000	0.819440
Cu111	Cu11	0.180560	0.361120	0.180560
Cu121	Cu12	0.819440	0.638880	0.819440
Cu131	Cu13	0.481030	0.240520	0.240520
Cu141	Cu14	0.000000	0.240510	0.759490
Cu151	Cu15	0.000000	0.759490	0.240510
Cu161	Cu16	0.518970	0.759480	0.759480
Cu171	Cu17	0.240510	0.000000	0.759480
Cu181	Cu18	0.759490	0.518980	0.759490
Cu191	Cu19	0.240510	0.481020	0.240510
Cu201	Cu20	0.759490	0.000000	0.240520
Cu211	Cu21	0.240510	0.759480	0.000000
Cu221	Cu22	0.240510	0.240510	0.481020
Cu231	Cu23	0.759490	0.759490	0.518980
Cu241	Cu24	0.759490	0.240520	0.000000
H11	H1	0.739800	0.247300	0.157100
H21	H2	0.090200	0.582700	0.842900
H31	H3	0.909800	0.752700	0.492500
H41	H4	0.260200	0.417300	0.507500
H51	H5	0.492500	0.909800	0.752700
H61	H6	0.507500	0.260200	0.417300
H71	H7	0.157100	0.739800	0.247300
H81	H8	0.842900	0.090200	0.582700
H91	H9	0.582700	0.842900	0.090200
H101	H10	0.247300	0.157100	0.739800
H111	H11	0.417300	0.507500	0.260200
H121	H12	0.752700	0.492500	0.909800
H131	H13	0.752700	0.260200	0.842900
H141	H14	0.417300	0.909800	0.157100
H151	H15	0.247300	0.090200	0.507500
H161	H16	0.582700	0.739800	0.492500
H171	H17	0.090200	0.507500	0.247300
H181	H18	0.739800	0.492500	0.582700
H191	H19	0.260200	0.842900	0.752700
H201	H20	0.909800	0.157100	0.417300
H211	H21	0.157100	0.417300	0.909800
H221	H22	0.842900	0.752700	0.260200
H231	H23	0.492500	0.582700	0.739800
H241	H24	0.507500	0.247300	0.090200
H251	H25	0.260200	0.752700	0.842900
H261	H26	0.909800	0.417300	0.157100
H271	H27	0.090200	0.247300	0.507500
H281	H28	0.739800	0.582700	0.492500
H291	H29	0.507500	0.090200	0.247300
H301	H30	0.492500	0.739800	0.582700
H311	H31	0.842900	0.260200	0.752700
H321	H32	0.157100	0.909800	0.417300
H331	H33	0.417300	0.157100	0.909800
H341	H34	0.752700	0.842900	0.260200
H351	H35	0.582700	0.492500	0.739800
H361	H36	0.247300	0.507500	0.090200
H371	H37	0.247300	0.739800	0.157100
H381	H38	0.582700	0.090200	0.842900
H391	H39	0.752700	0.909800	0.492500
H401	H40	0.417300	0.260200	0.507500
H411	H41	0.909800	0.492500	0.752700
H421	H42	0.260200	0.507500	0.417300
H431	H43	0.739800	0.157100	0.247300
H441	H44	0.090200	0.842900	0.582700
H451	H45	0.842900	0.582700	0.090200
H461	H46	0.157100	0.247300	0.739800
H471	H47	0.507500	0.417300	0.260200
H481	H48	0.492500	0.752700	0.909800
H491	H49	0.746000	0.373000	0.373000
H501	H50	0.000000	0.373000	0.627000
H511	H51	0.000000	0.627000	0.373000
H521	H52	0.254000	0.627000	0.627000
H531	H53	0.373000	0.000000	0.627000
H541	H54	0.627000	0.254000	0.627000
H551	H55	0.373000	0.746000	0.373000
H561	H56	0.627000	0.000000	0.373000
H571	H57	0.373000	0.627000	0.000000
H581	H58	0.373000	0.373000	0.746000
H591	H59	0.627000	0.627000	0.254000
H601	H60	0.627000	0.373000	0.000000
H611	H61	0.788800	0.119800	0.119800
H621	H62	0.588200	0.231000	0.231000
H631	H63	0.000000	0.669000	0.880200
H641	H64	0.000000	0.357200	0.769000
H651	H65	0.000000	0.880200	0.669000
H661	H66	0.000000	0.769000	0.357200
H671	H67	0.211200	0.331000	0.331000
H681	H68	0.411800	0.642800	0.642800
H691	H69	0.669000	0.000000	0.880200
H701	H70	0.357200	0.000000	0.769000
H711	H71	0.331000	0.211200	0.331000
H721	H72	0.642800	0.411800	0.642800
H731	H73	0.119800	0.788800	0.119800
H741	H74	0.231000	0.588200	0.231000
H751	H75	0.880200	0.000000	0.669000
H761	H76	0.769000	0.000000	0.357200
H771	H77	0.669000	0.880200	0.000000
H781	H78	0.357200	0.769000	0.000000
H791	H79	0.119800	0.119800	0.788800
H801	H80	0.231000	0.231000	0.588200
H811	H81	0.331000	0.331000	0.211200
H821	H82	0.642800	0.642800	0.411800
H831	H83	0.880200	0.669000	0.000000
H841	H84	0.769000	0.357200	0.000000
H851	H85	0.880200	0.211200	0.880200
H861	H86	0.769000	0.411800	0.769000
H871	H87	0.331000	0.000000	0.119800
H881	H88	0.642800	0.000000	0.231000
H891	H89	0.119800	0.000000	0.331000
H901	H90	0.231000	0.000000	0.642800
H911	H91	0.669000	0.788800	0.669000
H921	H92	0.357200	0.588200	0.357200
H931	H93	0.000000	0.331000	0.119800
H941	H94	0.000000	0.642800	0.231000
H951	H95	0.788800	0.669000	0.669000
H961	H96	0.588200	0.357200	0.357200
H971	H97	0.211200	0.880200	0.880200
H981	H98	0.411800	0.769000	0.769000
H991	H99	0.000000	0.119800	0.331000
H1001	H100	0.000000	0.231000	0.642800
H1011	H101	0.119800	0.331000	0.000000
H1021	H102	0.231000	0.642800	0.000000
H1031	H103	0.880200	0.880200	0.211200
H1041	H104	0.769000	0.769000	0.411800
H1051	H105	0.669000	0.669000	0.788800
H1061	H106	0.357200	0.357200	0.588200
H1071	H107	0.331000	0.119800	0.000000
H1081	H108	0.642800	0.231000	0.000000
C11	C1	0.764870	0.182950	0.131680
C21	C2	0.745900	0.217920	0.164820
C31	C3	0.773000	0.193920	0.081920
C41	C4	0.051270	0.633190	0.868320
C51	C5	0.053100	0.581080	0.835180
C61	C6	0.112000	0.691080	0.918080
C71	C7	0.948730	0.817050	0.581920
C81	C8	0.946900	0.782080	0.527980
C91	C9	0.888000	0.806080	0.579080
C101	C10	0.235130	0.366810	0.418080
C111	C11	0.254100	0.418920	0.472020
C121	C12	0.227000	0.308920	0.420920
C131	C13	0.581920	0.948730	0.817050
C141	C14	0.527980	0.946900	0.782080
C151	C15	0.579080	0.888000	0.806080
C161	C16	0.418080	0.235130	0.366810
C171	C17	0.472020	0.254100	0.418920
C181	C18	0.420920	0.227000	0.308920
C191	C19	0.131680	0.764870	0.182950
C201	C20	0.164820	0.745900	0.217920
C211	C21	0.081920	0.773000	0.193920
C221	C22	0.868320	0.051270	0.633190
C231	C23	0.835180	0.053100	0.581080
C241	C24	0.918080	0.112000	0.691080
C251	C25	0.633190	0.868320	0.051270
C261	C26	0.581080	0.835180	0.053100
C271	C27	0.691080	0.918080	0.112000
C281	C28	0.182950	0.131680	0.764870
C291	C29	0.217920	0.164820	0.745900
C301	C30	0.193920	0.081920	0.773000
C311	C31	0.366810	0.418080	0.235130
C321	C32	0.418920	0.472020	0.254100
C331	C33	0.308920	0.420920	0.227000
C341	C34	0.817050	0.581920	0.948730
C351	C35	0.782080	0.527980	0.946900
C361	C36	0.806080	0.579080	0.888000
C371	C37	0.817050	0.235130	0.868320
C381	C38	0.782080	0.254100	0.835180
C391	C39	0.806080	0.227000	0.918080
C401	C40	0.366810	0.948730	0.131680
C411	C41	0.418920	0.946900	0.164820
C421	C42	0.308920	0.888000	0.081920
C431	C43	0.182950	0.051270	0.418080
C441	C44	0.217920	0.053100	0.472020
C451	C45	0.193920	0.112000	0.420920
C461	C46	0.633190	0.764870	0.581920
C471	C47	0.581080	0.745900	0.527980
C481	C48	0.691080	0.773000	0.579080
C491	C49	0.051270	0.418080	0.182950
C501	C50	0.053100	0.472020	0.217920
C511	C51	0.112000	0.420920	0.193920
C521	C52	0.764870	0.581920	0.633190
C531	C53	0.745900	0.527980	0.581080
C541	C54	0.773000	0.579080	0.691080
C551	C55	0.235130	0.868320	0.817050
C561	C56	0.254100	0.835180	0.782080
C571	C57	0.227000	0.918080	0.806080
C581	C58	0.948730	0.131680	0.366810
C591	C59	0.946900	0.164820	0.418920
C601	C60	0.888000	0.081920	0.308920
C611	C61	0.131680	0.366810	0.948730
C621	C62	0.164820	0.418920	0.946900
C631	C63	0.081920	0.308920	0.888000
C641	C64	0.868320	0.817050	0.235130
C651	C65	0.835180	0.782080	0.254100
C661	C66	0.918080	0.806080	0.227000
C671	C67	0.581920	0.633190	0.764870
C681	C68	0.527980	0.581080	0.745900
C691	C69	0.579080	0.691080	0.773000
C701	C70	0.418080	0.182950	0.051270
C711	C71	0.472020	0.217920	0.053100
C721	C72	0.420920	0.193920	0.112000
C731	C73	0.235130	0.817050	0.868320
C741	C74	0.254100	0.782080	0.835180
C751	C75	0.227000	0.806080	0.918080
C761	C76	0.948730	0.366810	0.131680
C771	C77	0.946900	0.418920	0.164820
C781	C78	0.888000	0.308920	0.081920
C791	C79	0.051270	0.182950	0.418080
C801	C80	0.053100	0.217920	0.472020
C811	C81	0.112000	0.193920	0.420920
C821	C82	0.764870	0.633190	0.581920
C831	C83	0.745900	0.581080	0.527980
C841	C84	0.773000	0.691080	0.579080
C851	C85	0.418080	0.051270	0.182950
C861	C86	0.472020	0.053100	0.217920
C871	C87	0.420920	0.112000	0.193920
C881	C88	0.581920	0.764870	0.633190
C891	C89	0.527980	0.745900	0.581080
C901	C90	0.579080	0.773000	0.691080
C911	C91	0.868320	0.235130	0.817050
C921	C92	0.835180	0.254100	0.782080
C931	C93	0.918080	0.227000	0.806080
C941	C94	0.131680	0.948730	0.366810
C951	C95	0.164820	0.946900	0.418920
C961	C96	0.081920	0.888000	0.308920
C971	C97	0.366810	0.131680	0.948730
C981	C98	0.418920	0.164820	0.946900
C991	C99	0.308920	0.081920	0.888000
C1001	C100	0.817050	0.868320	0.235130
C1011	C101	0.782080	0.835180	0.254100
C1021	C102	0.806080	0.918080	0.227000
C1031	C103	0.633190	0.581920	0.764870
C1041	C104	0.581080	0.527980	0.745900
C1051	C105	0.691080	0.579080	0.773000
C1061	C106	0.182950	0.418080	0.051270
C1071	C107	0.217920	0.472020	0.053100
C1081	C108	0.193920	0.420920	0.112000
C1091	C109	0.182950	0.764870	0.131680
C1101	C110	0.217920	0.745900	0.164820
C1111	C111	0.193920	0.773000	0.081920
C1121	C112	0.633190	0.051270	0.868320
C1131	C113	0.581080	0.053100	0.835180
C1141	C114	0.691080	0.112000	0.918080
C1151	C115	0.817050	0.948730	0.581920
C1161	C116	0.782080	0.946900	0.527980
C1171	C117	0.806080	0.888000	0.579080
C1181	C118	0.366810	0.235130	0.418080
C1191	C119	0.418920	0.254100	0.472020
C1201	C120	0.308920	0.227000	0.420920
C1211	C121	0.948730	0.581920	0.817050
C1221	C122	0.946900	0.527980	0.782080
C1231	C123	0.888000	0.579080	0.806080
C1241	C124	0.235130	0.418080	0.366810
C1251	C125	0.254100	0.472020	0.418920
C1261	C126	0.227000	0.420920	0.308920
C1271	C127	0.764870	0.131680	0.182950
C1281	C128	0.745900	0.164820	0.217920
C1291	C129	0.773000	0.081920	0.193920
C1301	C130	0.051270	0.868320	0.633190
C1311	C131	0.053100	0.835180	0.581080
C1321	C132	0.112000	0.918080	0.691080
C1331	C133	0.868320	0.633190	0.051270
C1341	C134	0.835180	0.581080	0.053100
C1351	C135	0.918080	0.691080	0.112000
C1361	C136	0.131680	0.182950	0.764870
C1371	C137	0.164820	0.217920	0.745900
C1381	C138	0.081920	0.193920	0.773000
C1391	C139	0.418080	0.366810	0.235130
C1401	C140	0.472020	0.418920	0.254100
C1411	C141	0.420920	0.308920	0.227000
C1421	C142	0.581920	0.817050	0.948730
C1431	C143	0.527980	0.782080	0.946900
C1441	C144	0.579080	0.806080	0.888000
C1451	C145	0.703600	0.351800	0.351800
C1461	C146	0.000000	0.351800	0.648200
C1471	C147	0.000000	0.648200	0.351800
C1481	C148	0.296400	0.648200	0.648200
C1491	C149	0.351800	0.000000	0.648200
C1501	C150	0.648200	0.296400	0.648200
C1511	C151	0.351800	0.703600	0.351800
C1521	C152	0.648200	0.000000	0.351800
C1531	C153	0.351800	0.648200	0.000000
C1541	C154	0.351800	0.351800	0.703600
C1551	C155	0.648200	0.648200	0.296400
C1561	C156	0.648200	0.351800	0.000000
C1571	C157	0.736800	0.207700	0.207700
C1581	C158	0.775160	0.141280	0.141280
C1591	C159	0.671820	0.298310	0.298310
C1601	C160	0.701700	0.270850	0.270850
C1611	C161	0.609340	0.267470	0.267470
C1621	C162	0.716600	0.241100	0.241100
C1631	C163	0.000000	0.529100	0.792300
C1641	C164	0.000000	0.633880	0.858720
C1651	C165	0.000000	0.373510	0.701690
C1661	C166	0.000000	0.430850	0.729150
C1671	C167	0.000000	0.341870	0.732530
C1681	C168	0.000000	0.475500	0.758900
C1691	C169	0.000000	0.792300	0.529100
C1701	C170	0.000000	0.858720	0.633880
C1711	C171	0.000000	0.701690	0.373510
C1721	C172	0.000000	0.729150	0.430850
C1731	C173	0.000000	0.732530	0.341870
C1741	C174	0.000000	0.758900	0.475500
C1751	C175	0.263200	0.470900	0.470900
C1761	C176	0.224840	0.366120	0.366120
C1771	C177	0.328180	0.626490	0.626490
C1781	C178	0.298300	0.569150	0.569150
C1791	C179	0.390660	0.658130	0.658130
C1801	C180	0.283400	0.524500	0.524500
C1811	C181	0.529100	0.000000	0.792300
C1821	C182	0.633880	0.000000	0.858720
C1831	C183	0.373510	0.000000	0.701690
C1841	C184	0.430850	0.000000	0.729150
C1851	C185	0.341870	0.000000	0.732530
C1861	C186	0.475500	0.000000	0.758900
C1871	C187	0.470900	0.263200	0.470900
C1881	C188	0.366120	0.224840	0.366120
C1891	C189	0.626490	0.328180	0.626490
C1901	C190	0.569150	0.298300	0.569150
C1911	C191	0.658130	0.390660	0.658130
C1921	C192	0.524500	0.283400	0.524500
C1931	C193	0.207700	0.736800	0.207700
C1941	C194	0.141280	0.775160	0.141280
C1951	C195	0.298310	0.671820	0.298310
C1961	C196	0.270850	0.701700	0.270850
C1971	C197	0.267470	0.609340	0.267470
C1981	C198	0.241100	0.716600	0.241100
C1991	C199	0.792300	0.000000	0.529100
C2001	C200	0.858720	0.000000	0.633880
C2011	C201	0.701690	0.000000	0.373510
C2021	C202	0.729150	0.000000	0.430850
C2031	C203	0.732530	0.000000	0.341870
C2041	C204	0.758900	0.000000	0.475500
C2051	C205	0.529100	0.792300	0.000000
C2061	C206	0.633880	0.858720	0.000000
C2071	C207	0.373510	0.701690	0.000000
C2081	C208	0.430850	0.729150	0.000000
C2091	C209	0.341870	0.732530	0.000000
C2101	C210	0.475500	0.758900	0.000000
C2111	C211	0.207700	0.207700	0.736800
C2121	C212	0.141280	0.141280	0.775160
C2131	C213	0.298310	0.298310	0.671820
C2141	C214	0.270850	0.270850	0.701700
C2151	C215	0.267470	0.267470	0.609340
C2161	C216	0.241100	0.241100	0.716600
C2171	C217	0.470900	0.470900	0.263200
C2181	C218	0.366120	0.366120	0.224840
C2191	C219	0.626490	0.626490	0.328180
C2201	C220	0.569150	0.569150	0.298300
C2211	C221	0.658130	0.658130	0.390660
C2221	C222	0.524500	0.524500	0.283400
C2231	C223	0.792300	0.529100	0.000000
C2241	C224	0.858720	0.633880	0.000000
C2251	C225	0.701690	0.373510	0.000000
C2261	C226	0.729150	0.430850	0.000000
C2271	C227	0.732530	0.341870	0.000000
C2281	C228	0.758900	0.475500	0.000000
C2291	C229	0.792300	0.263200	0.792300
C2301	C230	0.858720	0.224840	0.858720
C2311	C231	0.701690	0.328180	0.701690
C2321	C232	0.729150	0.298300	0.729150
C2331	C233	0.732530	0.390660	0.732530
C2341	C234	0.758900	0.283400	0.758900
C2351	C235	0.470900	0.000000	0.207700
C2361	C236	0.366120	0.000000	0.141280
C2371	C237	0.626490	0.000000	0.298310
C2381	C238	0.569150	0.000000	0.270850
C2391	C239	0.658130	0.000000	0.267470
C2401	C240	0.524500	0.000000	0.241100
C2411	C241	0.207700	0.000000	0.470900
C2421	C242	0.141280	0.000000	0.366120
C2431	C243	0.298310	0.000000	0.626490
C2441	C244	0.270850	0.000000	0.569150
C2451	C245	0.267470	0.000000	0.658130
C2461	C246	0.241100	0.000000	0.524500
C2471	C247	0.529100	0.736800	0.529100
C2481	C248	0.633880	0.775160	0.633880
C2491	C249	0.373510	0.671820	0.373510
C2501	C250	0.430850	0.701700	0.430850
C2511	C251	0.341870	0.609340	0.341870
C2521	C252	0.475500	0.716600	0.475500
C2531	C253	0.000000	0.470900	0.207700
C2541	C254	0.000000	0.366120	0.141280
C2551	C255	0.000000	0.626490	0.298310
C2561	C256	0.000000	0.569150	0.270850
C2571	C257	0.000000	0.658130	0.267470
C2581	C258	0.000000	0.524500	0.241100
C2591	C259	0.736800	0.529100	0.529100
C2601	C260	0.775160	0.633880	0.633880
C2611	C261	0.671820	0.373510	0.373510
C2621	C262	0.701700	0.430850	0.430850
C2631	C263	0.609340	0.341870	0.341870
C2641	C264	0.716600	0.475500	0.475500
C2651	C265	0.263200	0.792300	0.792300
C2661	C266	0.224840	0.858720	0.858720
C2671	C267	0.328180	0.701690	0.701690
C2681	C268	0.298300	0.729150	0.729150
C2691	C269	0.390660	0.732530	0.732530
C2701	C270	0.283400	0.758900	0.758900
C2711	C271	0.000000	0.207700	0.470900
C2721	C272	0.000000	0.141280	0.366120
C2731	C273	0.000000	0.298310	0.626490
C2741	C274	0.000000	0.270850	0.569150
C2751	C275	0.000000	0.267470	0.658130
C2761	C276	0.000000	0.241100	0.524500
C2771	C277	0.207700	0.470900	0.000000
C2781	C278	0.141280	0.366120	0.000000
C2791	C279	0.298310	0.626490	0.000000
C2801	C280	0.270850	0.569150	0.000000
C2811	C281	0.267470	0.658130	0.000000
C2821	C282	0.241100	0.524500	0.000000
C2831	C283	0.792300	0.792300	0.263200
C2841	C284	0.858720	0.858720	0.224840
C2851	C285	0.701690	0.701690	0.328180
C2861	C286	0.729150	0.729150	0.298300
C2871	C287	0.732530	0.732530	0.390660
C2881	C288	0.758900	0.758900	0.283400
C2891	C289	0.529100	0.529100	0.736800
C2901	C290	0.633880	0.633880	0.775160
C2911	C291	0.373510	0.373510	0.671820
C2921	C292	0.430850	0.430850	0.701700
C2931	C293	0.341870	0.341870	0.609340
C2941	C294	0.475500	0.475500	0.716600
C2951	C295	0.470900	0.207700	0.000000
C2961	C296	0.366120	0.141280	0.000000
C2971	C297	0.626490	0.298310	0.000000
C2981	C298	0.569150	0.270850	0.000000
C2991	C299	0.658130	0.267470	0.000000
C3001	C300	0.524500	0.241100	0.000000
N11	N1	0.578000	0.289000	0.289000
N21	N2	0.000000	0.289000	0.711000
N31	N3	0.000000	0.711000	0.289000
N41	N4	0.422000	0.711000	0.711000
N51	N5	0.289000	0.000000	0.711000
N61	N6	0.711000	0.422000	0.711000
N71	N7	0.289000	0.578000	0.289000
N81	N8	0.711000	0.000000	0.289000
N91	N9	0.289000	0.711000	0.000000
N101	N10	0.289000	0.289000	0.578000
N111	N11	0.711000	0.711000	0.422000
N121	N12	0.711000	0.289000	0.000000
O11	O1	0.801420	0.172790	0.063170
O21	O2	0.751120	0.223800	0.063220
O31	O3	0.109620	0.738250	0.936830
O41	O4	0.160580	0.687900	0.936780
O51	O5	0.890380	0.827210	0.628630
O61	O6	0.839420	0.776200	0.527320
O71	O7	0.198580	0.261750	0.371370
O81	O8	0.248880	0.312100	0.472680
O91	O9	0.628630	0.890380	0.827210
O101	O10	0.527320	0.839420	0.776200
O111	O11	0.371370	0.198580	0.261750
O121	O12	0.472680	0.248880	0.312100
O131	O13	0.063170	0.801420	0.172790
O141	O14	0.063220	0.751120	0.223800
O151	O15	0.936830	0.109620	0.738250
O161	O16	0.936780	0.160580	0.687900
O171	O17	0.738250	0.936830	0.109620
O181	O18	0.687900	0.936780	0.160580
O191	O19	0.172790	0.063170	0.801420
O201	O20	0.223800	0.063220	0.751120
O211	O21	0.261750	0.371370	0.198580
O221	O22	0.312100	0.472680	0.248880
O231	O23	0.827210	0.628630	0.890380
O241	O24	0.776200	0.527320	0.839420
O251	O25	0.827210	0.198580	0.936830
O261	O26	0.776200	0.248880	0.936780
O271	O27	0.261750	0.890380	0.063170
O281	O28	0.312100	0.839420	0.063220
O291	O29	0.172790	0.109620	0.371370
O301	O30	0.223800	0.160580	0.472680
O311	O31	0.738250	0.801420	0.628630
O321	O32	0.687900	0.751120	0.527320
O331	O33	0.109620	0.371370	0.172790
O341	O34	0.160580	0.472680	0.223800
O351	O35	0.801420	0.628630	0.738250
O361	O36	0.751120	0.527320	0.687900
O371	O37	0.198580	0.936830	0.827210
O381	O38	0.248880	0.936780	0.776200
O391	O39	0.890380	0.063170	0.261750
O401	O40	0.839420	0.063220	0.312100
O411	O41	0.063170	0.261750	0.890380
O421	O42	0.063220	0.312100	0.839420
O431	O43	0.936830	0.827210	0.198580
O441	O44	0.936780	0.776200	0.248880
O451	O45	0.628630	0.738250	0.801420
O461	O46	0.527320	0.687900	0.751120
O471	O47	0.371370	0.172790	0.109620
O481	O48	0.472680	0.223800	0.160580
O491	O49	0.198580	0.827210	0.936830
O501	O50	0.248880	0.776200	0.936780
O511	O51	0.890380	0.261750	0.063170
O521	O52	0.839420	0.312100	0.063220
O531	O53	0.109620	0.172790	0.371370
O541	O54	0.160580	0.223800	0.472680
O551	O55	0.801420	0.738250	0.628630
O561	O56	0.751120	0.687900	0.527320
O571	O57	0.371370	0.109620	0.172790
O581	O58	0.472680	0.160580	0.223800
O591	O59	0.628630	0.801420	0.738250
O601	O60	0.527320	0.751120	0.687900
O611	O61	0.936830	0.198580	0.827210
O621	O62	0.936780	0.248880	0.776200
O631	O63	0.063170	0.890380	0.261750
O641	O64	0.063220	0.839420	0.312100
O651	O65	0.261750	0.063170	0.890380
O661	O66	0.312100	0.063220	0.839420
O671	O67	0.827210	0.936830	0.198580
O681	O68	0.776200	0.936780	0.248880
O691	O69	0.738250	0.628630	0.801420
O701	O70	0.687900	0.527320	0.751120
O711	O71	0.172790	0.371370	0.109620
O721	O72	0.223800	0.472680	0.160580
O731	O73	0.172790	0.801420	0.063170
O741	O74	0.223800	0.751120	0.063220
O751	O75	0.738250	0.109620	0.936830
O761	O76	0.687900	0.160580	0.936780
O771	O77	0.827210	0.890380	0.628630
O781	O78	0.776200	0.839420	0.527320
O791	O79	0.261750	0.198580	0.371370
O801	O80	0.312100	0.248880	0.472680
O811	O81	0.890380	0.628630	0.827210
O821	O82	0.839420	0.527320	0.776200
O831	O83	0.198580	0.371370	0.261750
O841	O84	0.248880	0.472680	0.312100
O851	O85	0.801420	0.063170	0.172790
O861	O86	0.751120	0.063220	0.223800
O871	O87	0.109620	0.936830	0.738250
O881	O88	0.160580	0.936780	0.687900
O891	O89	0.936830	0.738250	0.109620
O901	O90	0.936780	0.687900	0.160580
O911	O91	0.063170	0.172790	0.801420
O921	O92	0.063220	0.223800	0.751120
O931	O93	0.371370	0.261750	0.198580
O941	O94	0.472680	0.312100	0.248880
O951	O95	0.628630	0.827210	0.890380
O961	O96	0.527320	0.776200	0.839420
