data_UVEWIC_clean_PM
_symmetry_space_group_name_H-M	'P1'
_cell_length_a	10.450000
_cell_length_b	10.450000
_cell_length_c	22.736000
_cell_angle_alpha	90.000000
_cell_angle_beta	90.000000
_cell_angle_gamma	90.000000
_symmetry_Int_Tables_number 1

loop_
_symmetry_equiv_pos_as_xyz
'x,y,z'

loop_
_atom_site_label
_atom_site_type_symbol
_atom_site_fract_x
_atom_site_fract_y
_atom_site_fract_z
Mn11	Mn1	0.571610	0.441630	0.302810
Mn21	Mn2	0.073520	0.939860	0.168350
Mn31	Mn3	0.428390	0.558370	0.802810
Mn41	Mn4	0.926480	0.060140	0.668350
Mn51	Mn5	0.558370	0.571610	0.052810
Mn61	Mn6	0.060140	0.073520	0.918350
Mn71	Mn7	0.441630	0.428390	0.552810
Mn81	Mn8	0.939860	0.926480	0.418350
Nb11	Nb1	0.571210	0.938550	0.235840
Nb21	Nb2	0.428790	0.061450	0.735840
Nb31	Nb3	0.061450	0.571210	0.985840
Nb41	Nb4	0.938550	0.428790	0.485840
C11	C1	0.374000	0.958600	0.198600
C21	C2	0.773000	0.920600	0.204500
C31	C3	0.586900	0.071100	0.157200
C41	C4	0.560900	0.799500	0.159600
C51	C5	0.701800	0.924700	0.317000
C61	C6	0.431000	0.963100	0.310600
C71	C7	0.542900	0.743400	0.273600
C81	C8	0.598000	0.138700	0.266600
C91	C9	0.626000	0.041400	0.698600
C101	C10	0.227000	0.079400	0.704500
C111	C11	0.413100	0.928900	0.657200
C121	C12	0.439100	0.200500	0.659600
C131	C13	0.298200	0.075300	0.817000
C141	C14	0.569000	0.036900	0.810600
C151	C15	0.457100	0.256600	0.773600
C161	C16	0.402000	0.861300	0.766600
C171	C17	0.041400	0.374000	0.948600
C181	C18	0.079400	0.773000	0.954500
C191	C19	0.928900	0.586900	0.907200
C201	C20	0.200500	0.560900	0.909600
C211	C21	0.075300	0.701800	0.067000
C221	C22	0.036900	0.431000	0.060600
C231	C23	0.256600	0.542900	0.023600
C241	C24	0.861300	0.598000	0.016600
C251	C25	0.958600	0.626000	0.448600
C261	C26	0.920600	0.227000	0.454500
C271	C27	0.071100	0.413100	0.407200
C281	C28	0.799500	0.439100	0.409600
C291	C29	0.924700	0.298200	0.567000
C301	C30	0.963100	0.569000	0.560600
C311	C31	0.743400	0.457100	0.523600
C321	C32	0.138700	0.402000	0.516600
N11	N1	0.551800	0.722300	0.122200
N21	N2	0.777200	0.917800	0.352200
N31	N3	0.596600	0.152200	0.123200
N41	N4	0.873600	0.914000	0.185600
N51	N5	0.348500	0.971200	0.343100
N61	N6	0.276600	0.967800	0.175900
N71	N7	0.532700	0.646500	0.297600
N81	N8	0.607600	0.240100	0.284500
N91	N9	0.448200	0.277700	0.622200
N101	N10	0.222800	0.082200	0.852200
N111	N11	0.403400	0.847800	0.623200
N121	N12	0.126400	0.086000	0.685600
N131	N13	0.651500	0.028800	0.843100
N141	N14	0.723400	0.032200	0.675900
N151	N15	0.467300	0.353500	0.797600
N161	N16	0.392400	0.759900	0.784500
N171	N17	0.277700	0.551800	0.872200
N181	N18	0.082200	0.777200	0.102200
N191	N19	0.847800	0.596600	0.873200
N201	N20	0.086000	0.873600	0.935600
N211	N21	0.028800	0.348500	0.093100
N221	N22	0.032200	0.276600	0.925900
N231	N23	0.353500	0.532700	0.047600
N241	N24	0.759900	0.607600	0.034500
N251	N25	0.722300	0.448200	0.372200
N261	N26	0.917800	0.222800	0.602200
N271	N27	0.152200	0.403400	0.373200
N281	N28	0.914000	0.126400	0.435600
N291	N29	0.971200	0.651500	0.593100
N301	N30	0.967800	0.723400	0.425900
N311	N31	0.646500	0.467300	0.547600
N321	N32	0.240100	0.392400	0.534500
