data_UVOBUE_clean_PM
_symmetry_space_group_name_H-M	'P1'
_cell_length_a	11.508400
_cell_length_b	12.715800
_cell_length_c	14.538700
_cell_angle_alpha	94.241000
_cell_angle_beta	109.066000
_cell_angle_gamma	115.603000
_symmetry_Int_Tables_number 1

loop_
_symmetry_equiv_pos_as_xyz
'x,y,z'

loop_
_atom_site_label
_atom_site_type_symbol
_atom_site_fract_x
_atom_site_fract_y
_atom_site_fract_z
Ce11	Ce1	0.382200	0.452200	0.831770
Ce21	Ce2	0.233270	0.524040	0.441130
Mo11	Mo1	0.349350	0.758320	0.886410
Mo21	Mo2	0.372360	0.925130	0.727190
Mo31	Mo3	0.377300	0.125190	0.883230
Mo41	Mo4	0.646880	0.043350	0.961940
N11	N1	0.608700	0.651600	0.839900
N21	N2	0.176300	0.569800	0.264000
O11	O1	0.371000	0.539200	0.677900
O21	O2	0.465500	0.651400	0.586400
O31	O3	0.616000	0.547900	0.988600
O41	O4	0.808800	0.707300	0.096700
O51	O5	0.004900	0.523000	0.355400
O61	O6	0.857200	0.559300	0.238700
O71	O7	0.408600	0.561600	0.364900
O81	O8	0.486800	0.603200	0.244400
O91	O9	0.396100	0.952400	0.902700
O101	O10	0.389300	0.792100	0.772300
O111	O11	0.381900	0.639700	0.898000
O121	O12	0.415000	0.087700	0.771200
O131	O13	0.605800	0.015900	0.832900
O141	O14	0.613700	0.180700	0.973200
O151	O15	0.407100	0.119800	0.025300
O161	O16	0.421400	0.273700	0.890500
C11	C1	0.470800	0.624800	0.668100
C21	C2	0.607100	0.698800	0.759900
C31	C3	0.717800	0.801900	0.760200
H11	H1	0.711600	0.831700	0.703300
C41	C4	0.837300	0.859300	0.847000
H21	H2	0.914000	0.929300	0.849900
C51	C5	0.843100	0.812600	0.929600
H31	H3	0.924400	0.850000	0.988400
C61	C6	0.727500	0.709900	0.924900
C71	C7	0.720200	0.654600	0.009500
C81	C8	0.965300	0.550900	0.273600
C91	C9	0.061800	0.576800	0.218500
C101	C10	0.033800	0.609400	0.127100
H41	H4	0.953900	0.616900	0.097400
C111	C11	0.126800	0.630000	0.082600
H51	H5	0.109400	0.650300	0.021300
C121	C12	0.248500	0.620500	0.129400
H61	H6	0.312600	0.633300	0.100100
C131	C13	0.268300	0.591400	0.221100
C141	C14	0.398700	0.584400	0.281000
Ce31	Ce3	0.617800	0.547800	0.168230
Ce41	Ce4	0.766730	0.475960	0.558870
Mo51	Mo5	0.650650	0.241680	0.113590
Mo61	Mo6	0.627640	0.074870	0.272810
Mo71	Mo7	0.622700	0.874810	0.116770
Mo81	Mo8	0.353120	0.956650	0.038060
N31	N3	0.391300	0.348400	0.160100
N41	N4	0.823700	0.430200	0.736000
O171	O17	0.629000	0.460800	0.322100
O181	O18	0.534500	0.348600	0.413600
O191	O19	0.384000	0.452100	0.011400
O201	O20	0.191200	0.292700	0.903300
O211	O21	0.995100	0.477000	0.644600
O221	O22	0.142800	0.440700	0.761300
O231	O23	0.591400	0.438400	0.635100
O241	O24	0.513200	0.396800	0.755600
O251	O25	0.603900	0.047600	0.097300
O261	O26	0.610700	0.207900	0.227700
O271	O27	0.618100	0.360300	0.102000
O281	O28	0.585000	0.912300	0.228800
O291	O29	0.394200	0.984100	0.167100
O301	O30	0.386300	0.819300	0.026800
O311	O31	0.592900	0.880200	0.974700
O321	O32	0.578600	0.726300	0.109500
C151	C15	0.529200	0.375200	0.331900
C161	C16	0.392900	0.301200	0.240100
C171	C17	0.282200	0.198100	0.239800
H71	H7	0.288400	0.168300	0.296700
C181	C18	0.162700	0.140700	0.153000
H81	H8	0.086000	0.070700	0.150100
C191	C19	0.156900	0.187400	0.070400
H91	H9	0.075600	0.150000	0.011600
C201	C20	0.272500	0.290100	0.075100
C211	C21	0.279800	0.345400	0.990500
C221	C22	0.034700	0.449100	0.726400
C231	C23	0.938200	0.423200	0.781500
C241	C24	0.966200	0.390600	0.872900
H101	H10	0.046100	0.383100	0.902600
C251	C25	0.873200	0.370000	0.917400
H111	H11	0.890600	0.349700	0.978700
C261	C26	0.751500	0.379500	0.870600
H121	H12	0.687400	0.366700	0.899900
C271	C27	0.731700	0.408600	0.778900
C281	C28	0.601300	0.415600	0.719000
