data_UVUFUN_clean_PM
_symmetry_space_group_name_H-M	'P1'
_cell_length_a	22.399200
_cell_length_b	22.399200
_cell_length_c	22.399200
_cell_angle_alpha	109.471000
_cell_angle_beta	109.471000
_cell_angle_gamma	109.471000
_symmetry_Int_Tables_number 1

loop_
_symmetry_equiv_pos_as_xyz
'x,y,z'

loop_
_atom_site_label
_atom_site_type_symbol
_atom_site_fract_x
_atom_site_fract_y
_atom_site_fract_z
Zn11	Zn1	0.500000	0.962620	0.500000
Zn21	Zn2	0.500000	0.805620	0.500000
Zn31	Zn3	0.962620	0.000000	0.000000
Zn41	Zn4	0.805620	0.000000	0.000000
Zn51	Zn5	0.537380	0.537380	0.037380
Zn61	Zn6	0.694380	0.694380	0.194380
Zn71	Zn7	0.000000	0.500000	0.462620
Zn81	Zn8	0.000000	0.500000	0.305620
Zn91	Zn9	0.500000	0.462620	0.500000
Zn101	Zn10	0.500000	0.305620	0.500000
Zn111	Zn11	0.462620	0.000000	0.000000
Zn121	Zn12	0.305620	0.000000	0.000000
Zn131	Zn13	0.000000	0.500000	0.962620
Zn141	Zn14	0.000000	0.500000	0.805620
Zn151	Zn15	0.037380	0.037380	0.537380
Zn161	Zn16	0.194380	0.194380	0.694380
H11	H1	0.676900	0.997900	0.463600
H21	H2	0.793300	0.048200	0.480300
H31	H3	0.851700	0.972300	0.618000
H41	H4	0.734500	0.919200	0.595900
H51	H5	0.921400	0.087500	0.550900
H61	H6	0.947900	0.063100	0.609600
H71	H7	0.854300	0.896600	0.495100
H81	H8	0.932800	0.942100	0.567500
H91	H9	0.842900	0.991300	0.429600
H101	H10	0.854300	0.923100	0.398400
H111	H11	0.034300	0.213300	0.036400
H121	H12	0.067900	0.313000	0.019700
H131	H13	0.854300	0.233700	0.882000
H141	H14	0.823300	0.138600	0.904100
H151	H15	0.036600	0.370500	0.949100
H161	H16	0.953500	0.338300	0.890400
H171	H17	0.901500	0.359200	0.004900
H181	H18	0.874600	0.365300	0.932500
H191	H19	0.061700	0.413300	0.070400
H201	H20	0.024700	0.455900	0.101600
H211	H21	0.465700	0.502100	0.179000
H221	H22	0.432100	0.451800	0.245100
H231	H23	0.645700	0.527700	0.379400
H241	H24	0.676700	0.580800	0.315300
H251	H25	0.463400	0.412500	0.333900
H261	H26	0.546500	0.436900	0.384800
H271	H27	0.598500	0.603400	0.457700
H281	H28	0.625400	0.557900	0.490700
H291	H29	0.438300	0.508700	0.351600
H301	H30	0.475300	0.576900	0.431200
H311	H31	0.823100	0.286700	0.321000
H321	H32	0.706700	0.187000	0.254900
H331	H33	0.648300	0.266300	0.120600
H341	H34	0.765500	0.361400	0.184700
H351	H35	0.578600	0.129500	0.166100
H361	H36	0.552100	0.161700	0.115200
H371	H37	0.645700	0.140800	0.042300
H381	H38	0.567200	0.134700	0.009300
H391	H39	0.657100	0.086700	0.148400
H401	H40	0.645700	0.044100	0.068800
H411	H41	0.679000	0.465700	0.002100
H421	H42	0.745100	0.432100	0.951800
H431	H43	0.879400	0.645700	0.027700
H441	H44	0.815300	0.676700	0.080800
H451	H45	0.833900	0.463400	0.912500
H461	H46	0.884800	0.546500	0.936900
H471	H47	0.957700	0.598500	0.103400
H481	H48	0.990700	0.625400	0.057900
H491	H49	0.851600	0.438300	0.008700
H501	H50	0.931200	0.475300	0.076900
H511	H51	0.821000	0.823100	0.786700
H521	H52	0.754900	0.706700	0.687000
H531	H53	0.620600	0.648300	0.766300
H541	H54	0.684700	0.765500	0.861400
H551	H55	0.666100	0.578600	0.629500
H561	H56	0.615200	0.552100	0.661700
H571	H57	0.542300	0.645700	0.640800
H581	H58	0.509300	0.567200	0.634700
H591	H59	0.648400	0.657100	0.586700
H601	H60	0.568800	0.645700	0.544100
H611	H61	0.963600	0.676900	0.497900
H621	H62	0.980300	0.793300	0.548200
H631	H63	0.118000	0.851700	0.472300
H641	H64	0.095900	0.734500	0.419200
H651	H65	0.050900	0.921400	0.587500
H661	H66	0.109600	0.947900	0.563100
H671	H67	0.995100	0.854300	0.396600
H681	H68	0.067500	0.932800	0.442100
H691	H69	0.929600	0.842900	0.491300
H701	H70	0.898400	0.854300	0.423100
H711	H71	0.536400	0.034300	0.713300
H721	H72	0.519700	0.067900	0.813000
H731	H73	0.382000	0.854300	0.733700
H741	H74	0.404100	0.823300	0.638600
H751	H75	0.449100	0.036600	0.870500
H761	H76	0.390400	0.953500	0.838300
H771	H77	0.504900	0.901500	0.859200
H781	H78	0.432500	0.874600	0.865300
H791	H79	0.570400	0.061700	0.913300
H801	H80	0.601600	0.024700	0.955900
H811	H81	0.213300	0.536400	0.534300
H821	H82	0.313000	0.519700	0.567900
H831	H83	0.233700	0.382000	0.354300
H841	H84	0.138600	0.404100	0.323300
H851	H85	0.370500	0.449100	0.536600
H861	H86	0.338300	0.390400	0.453500
H871	H87	0.359200	0.504900	0.401500
H881	H88	0.365300	0.432500	0.374600
H891	H89	0.413300	0.570400	0.561700
H901	H90	0.455900	0.601600	0.524700
H911	H91	0.997900	0.963600	0.176900
H921	H92	0.048200	0.980300	0.293300
H931	H93	0.972300	0.118000	0.351700
H941	H94	0.919200	0.095900	0.234500
H951	H95	0.087500	0.050900	0.421400
H961	H96	0.063100	0.109600	0.447900
H971	H97	0.896600	0.995100	0.354300
H981	H98	0.942100	0.067500	0.432800
H991	H99	0.991300	0.929600	0.342900
H1001	H100	0.923100	0.898400	0.354300
H1011	H101	0.286700	0.821000	0.323100
H1021	H102	0.187000	0.754900	0.206700
H1031	H103	0.266300	0.620600	0.148300
H1041	H104	0.361400	0.684700	0.265500
H1051	H105	0.129500	0.666100	0.078600
H1061	H106	0.161700	0.615200	0.052100
H1071	H107	0.140800	0.542300	0.145700
H1081	H108	0.134700	0.509300	0.067200
H1091	H109	0.086700	0.648400	0.157100
H1101	H110	0.044100	0.568800	0.145700
H1111	H111	0.502100	0.679000	0.965700
H1121	H112	0.451800	0.745100	0.932100
H1131	H113	0.527700	0.879400	0.145700
H1141	H114	0.580800	0.815300	0.176700
H1151	H115	0.412500	0.833900	0.963400
H1161	H116	0.436900	0.884800	0.046500
H1171	H117	0.603400	0.957700	0.098500
H1181	H118	0.557900	0.990700	0.125400
H1191	H119	0.508700	0.851600	0.938300
H1201	H120	0.576900	0.931200	0.975300
H1211	H121	0.713300	0.534300	0.536400
H1221	H122	0.813000	0.567900	0.519700
H1231	H123	0.733700	0.354300	0.382000
H1241	H124	0.638600	0.323300	0.404100
H1251	H125	0.870500	0.536600	0.449100
H1261	H126	0.838300	0.453500	0.390400
H1271	H127	0.859200	0.401500	0.504900
H1281	H128	0.865300	0.374600	0.432500
H1291	H129	0.913300	0.561700	0.570400
H1301	H130	0.955900	0.524700	0.601600
H1311	H131	0.497900	0.176900	0.963600
H1321	H132	0.548200	0.293300	0.980300
H1331	H133	0.472300	0.351700	0.118000
H1341	H134	0.419200	0.234500	0.095900
H1351	H135	0.587500	0.421400	0.050900
H1361	H136	0.563100	0.447900	0.109600
H1371	H137	0.396600	0.354300	0.995100
H1381	H138	0.442100	0.432800	0.067500
H1391	H139	0.491300	0.342900	0.929600
H1401	H140	0.423100	0.354300	0.898400
H1411	H141	0.786700	0.323100	0.821000
H1421	H142	0.687000	0.206700	0.754900
H1431	H143	0.766300	0.148300	0.620600
H1441	H144	0.861400	0.265500	0.684700
H1451	H145	0.629500	0.078600	0.666100
H1461	H146	0.661700	0.052100	0.615200
H1471	H147	0.640800	0.145700	0.542300
H1481	H148	0.634700	0.067200	0.509300
H1491	H149	0.586700	0.157100	0.648400
H1501	H150	0.544100	0.145700	0.568800
H1511	H151	0.002100	0.965700	0.679000
H1521	H152	0.951800	0.932100	0.745100
H1531	H153	0.027700	0.145700	0.879400
H1541	H154	0.080800	0.176700	0.815300
H1551	H155	0.912500	0.963400	0.833900
H1561	H156	0.936900	0.046500	0.884800
H1571	H157	0.103400	0.098500	0.957700
H1581	H158	0.057900	0.125400	0.990700
H1591	H159	0.008700	0.938300	0.851600
H1601	H160	0.076900	0.975300	0.931200
H1611	H161	0.176900	0.463600	0.997900
H1621	H162	0.293300	0.480300	0.048200
H1631	H163	0.351700	0.618000	0.972300
H1641	H164	0.234500	0.595900	0.919200
H1651	H165	0.421400	0.550900	0.087500
H1661	H166	0.447900	0.609600	0.063100
H1671	H167	0.354300	0.495100	0.896600
H1681	H168	0.432800	0.567500	0.942100
H1691	H169	0.342900	0.429600	0.991300
H1701	H170	0.354300	0.398400	0.923100
H1711	H171	0.534300	0.036400	0.213300
H1721	H172	0.567900	0.019700	0.313000
H1731	H173	0.354300	0.882000	0.233700
H1741	H174	0.323300	0.904100	0.138600
H1751	H175	0.536600	0.949100	0.370500
H1761	H176	0.453500	0.890400	0.338300
H1771	H177	0.401500	0.004900	0.359200
H1781	H178	0.374600	0.932500	0.365300
H1791	H179	0.561700	0.070400	0.413300
H1801	H180	0.524700	0.101600	0.455900
H1811	H181	0.965700	0.179000	0.502100
H1821	H182	0.932100	0.245100	0.451800
H1831	H183	0.145700	0.379400	0.527700
H1841	H184	0.176700	0.315300	0.580800
H1851	H185	0.963400	0.333900	0.412500
H1861	H186	0.046500	0.384800	0.436900
H1871	H187	0.098500	0.457700	0.603400
H1881	H188	0.125400	0.490700	0.557900
H1891	H189	0.938300	0.351600	0.508700
H1901	H190	0.975300	0.431200	0.576900
H1911	H191	0.323100	0.321000	0.286700
H1921	H192	0.206700	0.254900	0.187000
H1931	H193	0.148300	0.120600	0.266300
H1941	H194	0.265500	0.184700	0.361400
H1951	H195	0.078600	0.166100	0.129500
H1961	H196	0.052100	0.115200	0.161700
H1971	H197	0.145700	0.042300	0.140800
H1981	H198	0.067200	0.009300	0.134700
H1991	H199	0.157100	0.148400	0.086700
H2001	H200	0.145700	0.068800	0.044100
H2011	H201	0.179000	0.002100	0.465700
H2021	H202	0.245100	0.951800	0.432100
H2031	H203	0.379400	0.027700	0.645700
H2041	H204	0.315300	0.080800	0.676700
H2051	H205	0.333900	0.912500	0.463400
H2061	H206	0.384800	0.936900	0.546500
H2071	H207	0.457700	0.103400	0.598500
H2081	H208	0.490700	0.057900	0.625400
H2091	H209	0.351600	0.008700	0.438300
H2101	H210	0.431200	0.076900	0.475300
H2111	H211	0.321000	0.786700	0.823100
H2121	H212	0.254900	0.687000	0.706700
H2131	H213	0.120600	0.766300	0.648300
H2141	H214	0.184700	0.861400	0.765500
H2151	H215	0.166100	0.629500	0.578600
H2161	H216	0.115200	0.661700	0.552100
H2171	H217	0.042300	0.640800	0.645700
H2181	H218	0.009300	0.634700	0.567200
H2191	H219	0.148400	0.586700	0.657100
H2201	H220	0.068800	0.544100	0.645700
H2211	H221	0.463600	0.497900	0.676900
H2221	H222	0.480300	0.548200	0.793300
H2231	H223	0.618000	0.472300	0.851700
H2241	H224	0.595900	0.419200	0.734500
H2251	H225	0.550900	0.587500	0.921400
H2261	H226	0.609600	0.563100	0.947900
H2271	H227	0.495100	0.396600	0.854300
H2281	H228	0.567500	0.442100	0.932800
H2291	H229	0.429600	0.491300	0.842900
H2301	H230	0.398400	0.423100	0.854300
H2311	H231	0.036400	0.713300	0.034300
H2321	H232	0.019700	0.813000	0.067900
H2331	H233	0.882000	0.733700	0.854300
H2341	H234	0.904100	0.638600	0.823300
H2351	H235	0.949100	0.870500	0.036600
H2361	H236	0.890400	0.838300	0.953500
H2371	H237	0.004900	0.859200	0.901500
H2381	H238	0.932500	0.865300	0.874600
H2391	H239	0.070400	0.913300	0.061700
H2401	H240	0.101600	0.955900	0.024700
C11	C1	0.616100	0.918000	0.512100
C21	C2	0.693200	0.951300	0.525900
C31	C3	0.712500	0.991200	0.493700
C41	C4	0.781600	0.021500	0.503900
C51	C5	0.835500	0.013300	0.549600
C61	C6	0.815800	0.976200	0.584600
C71	C7	0.746600	0.945500	0.572100
C81	C8	0.911500	0.045100	0.558800
C91	C9	0.907400	0.926500	0.514900
C101	C10	0.880300	0.976500	0.432400
C111	C11	0.905900	0.104000	0.987900
C121	C12	0.925400	0.167300	0.974100
C131	C13	0.997500	0.218800	0.006300
C141	C14	0.017600	0.277700	0.996100
C151	C15	0.963700	0.285900	0.950400
C161	C16	0.891600	0.231200	0.915400
C171	C17	0.873400	0.174500	0.927900
C181	C18	0.986300	0.352700	0.941200
C191	C19	0.911600	0.392500	0.985100
C201	C20	0.044100	0.447900	0.067600
C211	C21	0.594100	0.582000	0.198100
C221	C22	0.574600	0.548700	0.241900
C231	C23	0.502500	0.508800	0.221300
C241	C24	0.482400	0.478500	0.260100
C251	C25	0.536300	0.486700	0.322200
C261	C26	0.608400	0.523800	0.339600
C271	C27	0.626600	0.554500	0.301100
C281	C28	0.513700	0.454900	0.366400
C291	C29	0.588400	0.573500	0.480900
C301	C30	0.455900	0.523500	0.403800
C311	C31	0.883900	0.396000	0.301900
C321	C32	0.806800	0.332700	0.258100
C331	C33	0.787500	0.281200	0.278700
C341	C34	0.718400	0.222300	0.239900
C351	C35	0.664500	0.214100	0.177800
C361	C36	0.684200	0.268800	0.160400
C371	C37	0.753400	0.325500	0.198900
C381	C38	0.588500	0.147300	0.133600
C391	C39	0.592600	0.107500	0.019100
C401	C40	0.619700	0.052100	0.096200
C411	C41	0.698100	0.594100	0.082000
C421	C42	0.741900	0.574600	0.048700
C431	C43	0.721300	0.502500	0.008800
C441	C44	0.760100	0.482400	0.978500
C451	C45	0.822200	0.536300	0.986700
C461	C46	0.839600	0.608400	0.023800
C471	C47	0.801100	0.626600	0.054500
C481	C48	0.866400	0.513700	0.954900
C491	C49	0.980900	0.588400	0.073500
C501	C50	0.903800	0.455900	0.023500
C511	C51	0.801900	0.883900	0.896000
C521	C52	0.758100	0.806800	0.832700
C531	C53	0.778700	0.787500	0.781200
C541	C54	0.739900	0.718400	0.722300
C551	C55	0.677800	0.664500	0.714100
C561	C56	0.660400	0.684200	0.768800
C571	C57	0.698900	0.753400	0.825500
C581	C58	0.633600	0.588500	0.647300
C591	C59	0.519100	0.592600	0.607500
C601	C60	0.596200	0.619700	0.552100
C611	C61	0.012100	0.616100	0.418000
C621	C62	0.025900	0.693200	0.451300
C631	C63	0.993700	0.712500	0.491200
C641	C64	0.003900	0.781600	0.521500
C651	C65	0.049600	0.835500	0.513300
C661	C66	0.084600	0.815800	0.476200
C671	C67	0.072100	0.746600	0.445500
C681	C68	0.058800	0.911500	0.545100
C691	C69	0.014900	0.907400	0.426500
C701	C70	0.932400	0.880300	0.476500
C711	C71	0.487900	0.905900	0.604000
C721	C72	0.474100	0.925400	0.667300
C731	C73	0.506300	0.997500	0.718800
C741	C74	0.496100	0.017600	0.777700
C751	C75	0.450400	0.963700	0.785900
C761	C76	0.415400	0.891600	0.731200
C771	C77	0.427900	0.873400	0.674500
C781	C78	0.441200	0.986300	0.852700
C791	C79	0.485100	0.911600	0.892500
C801	C80	0.567600	0.044100	0.947900
C811	C81	0.104000	0.487900	0.405900
C821	C82	0.167300	0.474100	0.425400
C831	C83	0.218800	0.506300	0.497500
C841	C84	0.277700	0.496100	0.517600
C851	C85	0.285900	0.450400	0.463700
C861	C86	0.231200	0.415400	0.391600
C871	C87	0.174500	0.427900	0.373400
C881	C88	0.352700	0.441200	0.486300
C891	C89	0.392500	0.485100	0.411600
C901	C90	0.447900	0.567600	0.544100
C911	C91	0.918000	0.012100	0.116100
C921	C92	0.951300	0.025900	0.193200
C931	C93	0.991200	0.993700	0.212500
C941	C94	0.021500	0.003900	0.281600
C951	C95	0.013300	0.049600	0.335500
C961	C96	0.976200	0.084600	0.315800
C971	C97	0.945500	0.072100	0.246600
C981	C98	0.045100	0.058800	0.411500
C991	C99	0.926500	0.014900	0.407400
C1001	C100	0.976500	0.932400	0.380300
C1011	C101	0.396000	0.801900	0.383900
C1021	C102	0.332700	0.758100	0.306800
C1031	C103	0.281200	0.778700	0.287500
C1041	C104	0.222300	0.739900	0.218400
C1051	C105	0.214100	0.677800	0.164500
C1061	C106	0.268800	0.660400	0.184200
C1071	C107	0.325500	0.698900	0.253400
C1081	C108	0.147300	0.633600	0.088500
C1091	C109	0.107500	0.519100	0.092600
C1101	C110	0.052100	0.596200	0.119700
C1111	C111	0.582000	0.698100	0.094100
C1121	C112	0.548700	0.741900	0.074600
C1131	C113	0.508800	0.721300	0.002500
C1141	C114	0.478500	0.760100	0.982400
C1151	C115	0.486700	0.822200	0.036300
C1161	C116	0.523800	0.839600	0.108400
C1171	C117	0.554500	0.801100	0.126600
C1181	C118	0.454900	0.866400	0.013700
C1191	C119	0.573500	0.980900	0.088400
C1201	C120	0.523500	0.903800	0.955900
C1211	C121	0.604000	0.405900	0.487900
C1221	C122	0.667300	0.425400	0.474100
C1231	C123	0.718800	0.497500	0.506300
C1241	C124	0.777700	0.517600	0.496100
C1251	C125	0.785900	0.463700	0.450400
C1261	C126	0.731200	0.391600	0.415400
C1271	C127	0.674500	0.373400	0.427900
C1281	C128	0.852700	0.486300	0.441200
C1291	C129	0.892500	0.411600	0.485100
C1301	C130	0.947900	0.544100	0.567600
C1311	C131	0.418000	0.116100	0.012100
C1321	C132	0.451300	0.193200	0.025900
C1331	C133	0.491200	0.212500	0.993700
C1341	C134	0.521500	0.281600	0.003900
C1351	C135	0.513300	0.335500	0.049600
C1361	C136	0.476200	0.315800	0.084600
C1371	C137	0.445500	0.246600	0.072100
C1381	C138	0.545100	0.411500	0.058800
C1391	C139	0.426500	0.407400	0.014900
C1401	C140	0.476500	0.380300	0.932400
C1411	C141	0.896000	0.383900	0.801900
C1421	C142	0.832700	0.306800	0.758100
C1431	C143	0.781200	0.287500	0.778700
C1441	C144	0.722300	0.218400	0.739900
C1451	C145	0.714100	0.164500	0.677800
C1461	C146	0.768800	0.184200	0.660400
C1471	C147	0.825500	0.253400	0.698900
C1481	C148	0.647300	0.088500	0.633600
C1491	C149	0.607500	0.092600	0.519100
C1501	C150	0.552100	0.119700	0.596200
C1511	C151	0.082000	0.094100	0.698100
C1521	C152	0.048700	0.074600	0.741900
C1531	C153	0.008800	0.002500	0.721300
C1541	C154	0.978500	0.982400	0.760100
C1551	C155	0.986700	0.036300	0.822200
C1561	C156	0.023800	0.108400	0.839600
C1571	C157	0.054500	0.126600	0.801100
C1581	C158	0.954900	0.013700	0.866400
C1591	C159	0.073500	0.088400	0.980900
C1601	C160	0.023500	0.955900	0.903800
C1611	C161	0.116100	0.512100	0.918000
C1621	C162	0.193200	0.525900	0.951300
C1631	C163	0.212500	0.493700	0.991200
C1641	C164	0.281600	0.503900	0.021500
C1651	C165	0.335500	0.549600	0.013300
C1661	C166	0.315800	0.584600	0.976200
C1671	C167	0.246600	0.572100	0.945500
C1681	C168	0.411500	0.558800	0.045100
C1691	C169	0.407400	0.514900	0.926500
C1701	C170	0.380300	0.432400	0.976500
C1711	C171	0.405900	0.987900	0.104000
C1721	C172	0.425400	0.974100	0.167300
C1731	C173	0.497500	0.006300	0.218800
C1741	C174	0.517600	0.996100	0.277700
C1751	C175	0.463700	0.950400	0.285900
C1761	C176	0.391600	0.915400	0.231200
C1771	C177	0.373400	0.927900	0.174500
C1781	C178	0.486300	0.941200	0.352700
C1791	C179	0.411600	0.985100	0.392500
C1801	C180	0.544100	0.067600	0.447900
C1811	C181	0.094100	0.198100	0.582000
C1821	C182	0.074600	0.241900	0.548700
C1831	C183	0.002500	0.221300	0.508800
C1841	C184	0.982400	0.260100	0.478500
C1851	C185	0.036300	0.322200	0.486700
C1861	C186	0.108400	0.339600	0.523800
C1871	C187	0.126600	0.301100	0.554500
C1881	C188	0.013700	0.366400	0.454900
C1891	C189	0.088400	0.480900	0.573500
C1901	C190	0.955900	0.403800	0.523500
C1911	C191	0.383900	0.301900	0.396000
C1921	C192	0.306800	0.258100	0.332700
C1931	C193	0.287500	0.278700	0.281200
C1941	C194	0.218400	0.239900	0.222300
C1951	C195	0.164500	0.177800	0.214100
C1961	C196	0.184200	0.160400	0.268800
C1971	C197	0.253400	0.198900	0.325500
C1981	C198	0.088500	0.133600	0.147300
C1991	C199	0.092600	0.019100	0.107500
C2001	C200	0.119700	0.096200	0.052100
C2011	C201	0.198100	0.082000	0.594100
C2021	C202	0.241900	0.048700	0.574600
C2031	C203	0.221300	0.008800	0.502500
C2041	C204	0.260100	0.978500	0.482400
C2051	C205	0.322200	0.986700	0.536300
C2061	C206	0.339600	0.023800	0.608400
C2071	C207	0.301100	0.054500	0.626600
C2081	C208	0.366400	0.954900	0.513700
C2091	C209	0.480900	0.073500	0.588400
C2101	C210	0.403800	0.023500	0.455900
C2111	C211	0.301900	0.896000	0.883900
C2121	C212	0.258100	0.832700	0.806800
C2131	C213	0.278700	0.781200	0.787500
C2141	C214	0.239900	0.722300	0.718400
C2151	C215	0.177800	0.714100	0.664500
C2161	C216	0.160400	0.768800	0.684200
C2171	C217	0.198900	0.825500	0.753400
C2181	C218	0.133600	0.647300	0.588500
C2191	C219	0.019100	0.607500	0.592600
C2201	C220	0.096200	0.552100	0.619700
C2211	C221	0.512100	0.418000	0.616100
C2221	C222	0.525900	0.451300	0.693200
C2231	C223	0.493700	0.491200	0.712500
C2241	C224	0.503900	0.521500	0.781600
C2251	C225	0.549600	0.513300	0.835500
C2261	C226	0.584600	0.476200	0.815800
C2271	C227	0.572100	0.445500	0.746600
C2281	C228	0.558800	0.545100	0.911500
C2291	C229	0.514900	0.426500	0.907400
C2301	C230	0.432400	0.476500	0.880300
C2311	C231	0.987900	0.604000	0.905900
C2321	C232	0.974100	0.667300	0.925400
C2331	C233	0.006300	0.718800	0.997500
C2341	C234	0.996100	0.777700	0.017600
C2351	C235	0.950400	0.785900	0.963700
C2361	C236	0.915400	0.731200	0.891600
C2371	C237	0.927900	0.674500	0.873400
C2381	C238	0.941200	0.852700	0.986300
C2391	C239	0.985100	0.892500	0.911600
C2401	C240	0.067600	0.947900	0.044100
N11	N1	0.921400	0.991200	0.507200
N21	N2	0.984000	0.414200	0.992800
N31	N3	0.516000	0.508800	0.430200
N41	N4	0.578600	0.085800	0.069800
N51	N5	0.930200	0.516000	0.008800
N61	N6	0.569800	0.578600	0.585800
N71	N7	0.007200	0.921400	0.491200
N81	N8	0.492800	0.984000	0.914200
N91	N9	0.414200	0.492800	0.484000
N101	N10	0.991200	0.007200	0.421400
N111	N11	0.085800	0.569800	0.078600
N121	N12	0.508800	0.930200	0.016000
N131	N13	0.914200	0.484000	0.492800
N141	N14	0.491200	0.421400	0.007200
N151	N15	0.585800	0.078600	0.569800
N161	N16	0.008800	0.016000	0.930200
N171	N17	0.421400	0.507200	0.991200
N181	N18	0.484000	0.992800	0.414200
N191	N19	0.016000	0.430200	0.508800
N201	N20	0.078600	0.069800	0.085800
N211	N21	0.430200	0.008800	0.516000
N221	N22	0.069800	0.585800	0.578600
N231	N23	0.507200	0.491200	0.921400
N241	N24	0.992800	0.914200	0.984000
O11	O1	0.574650	0.934660	0.482630
O21	O2	0.600250	0.871000	0.533450
O31	O3	0.952030	0.092020	0.017370
O41	O4	0.837550	0.066800	0.966550
O51	O5	0.547970	0.565340	0.139990
O61	O6	0.662450	0.629000	0.229250
O71	O7	0.925350	0.407980	0.360010
O81	O8	0.899750	0.433200	0.270750
O91	O9	0.639990	0.547970	0.065340
O101	O10	0.729250	0.662450	0.129000
O111	O11	0.860010	0.925350	0.907980
O121	O12	0.770750	0.899750	0.933200
O131	O13	0.982630	0.574650	0.434660
O141	O14	0.033450	0.600250	0.371000
O151	O15	0.517370	0.952030	0.592020
O161	O16	0.466550	0.837550	0.566800
O171	O17	0.092020	0.517370	0.452030
O181	O18	0.066800	0.466550	0.337550
O191	O19	0.934660	0.982630	0.074650
O201	O20	0.871000	0.033450	0.100250
O211	O21	0.407980	0.860010	0.425350
O221	O22	0.433200	0.770750	0.399750
O231	O23	0.565340	0.639990	0.047970
O241	O24	0.629000	0.729250	0.162450
O251	O25	0.592020	0.452030	0.517370
O261	O26	0.566800	0.337550	0.466550
O271	O27	0.434660	0.074650	0.982630
O281	O28	0.371000	0.100250	0.033450
O291	O29	0.907980	0.425350	0.860010
O301	O30	0.933200	0.399750	0.770750
O311	O31	0.065340	0.047970	0.639990
O321	O32	0.129000	0.162450	0.729250
O331	O33	0.074650	0.482630	0.934660
O341	O34	0.100250	0.533450	0.871000
O351	O35	0.452030	0.017370	0.092020
O361	O36	0.337550	0.966550	0.066800
O371	O37	0.047970	0.139990	0.565340
O381	O38	0.162450	0.229250	0.629000
O391	O39	0.425350	0.360010	0.407980
O401	O40	0.399750	0.270750	0.433200
O411	O41	0.139990	0.065340	0.547970
O421	O42	0.229250	0.129000	0.662450
O431	O43	0.360010	0.907980	0.925350
O441	O44	0.270750	0.933200	0.899750
O451	O45	0.482630	0.434660	0.574650
O461	O46	0.533450	0.371000	0.600250
O471	O47	0.017370	0.592020	0.952030
O481	O48	0.966550	0.566800	0.837550
