data_UVUQAE_clean_PM
_symmetry_space_group_name_H-M	'P1'
_cell_length_a	15.085500
_cell_length_b	15.085500
_cell_length_c	21.515000
_cell_angle_alpha	83.867200
_cell_angle_beta	83.867200
_cell_angle_gamma	65.555600
_symmetry_Int_Tables_number 1

loop_
_symmetry_equiv_pos_as_xyz
'x,y,z'

loop_
_atom_site_label
_atom_site_type_symbol
_atom_site_fract_x
_atom_site_fract_y
_atom_site_fract_z
Zn11	Zn1	0.009650	0.012850	0.681470
Zn21	Zn2	0.951840	0.432360	0.006100
Zn31	Zn3	0.987150	0.990350	0.818530
Zn41	Zn4	0.567640	0.048160	0.493900
Zn51	Zn5	0.990350	0.987150	0.318530
Zn61	Zn6	0.048160	0.567640	0.993900
Zn71	Zn7	0.012850	0.009650	0.181470
Zn81	Zn8	0.432360	0.951840	0.506100
H11	H1	0.677800	0.103000	0.836100
H21	H2	0.512200	0.152000	0.839200
H31	H3	0.533000	0.112400	0.656600
H41	H4	0.699800	0.062600	0.653500
H51	H5	0.263100	0.409300	0.863800
H61	H6	0.391300	0.314700	0.797300
H71	H7	0.263300	0.130300	0.792200
H81	H8	0.132900	0.228100	0.857200
H91	H9	0.111900	0.558700	0.621900
H101	H10	0.087100	0.718300	0.632900
H111	H11	0.038300	0.681100	0.818000
H121	H12	0.068600	0.520400	0.809300
H131	H13	0.208800	0.150400	0.633000
H141	H14	0.094400	0.277800	0.687100
H151	H15	0.269500	0.421300	0.654800
H161	H16	0.381600	0.293600	0.599700
H171	H17	0.938900	0.252100	0.076500
H181	H18	0.825700	0.189300	0.108100
H191	H19	0.665800	0.275200	0.080600
H201	H20	0.744800	0.481000	0.991900
H211	H21	0.897000	0.322200	0.663900
H221	H22	0.848000	0.487800	0.660800
H231	H23	0.887600	0.467000	0.843400
H241	H24	0.937400	0.300200	0.846500
H251	H25	0.590700	0.736900	0.636200
H261	H26	0.685300	0.608700	0.702700
H271	H27	0.869700	0.736700	0.707800
H281	H28	0.771900	0.867100	0.642800
H291	H29	0.441300	0.888100	0.878100
H301	H30	0.281700	0.912900	0.867100
H311	H31	0.318900	0.961700	0.682000
H321	H32	0.479600	0.931400	0.690700
H331	H33	0.849600	0.791200	0.867000
H341	H34	0.722200	0.905600	0.812900
H351	H35	0.578700	0.730500	0.845200
H361	H36	0.706400	0.618400	0.900300
H371	H37	0.747900	0.061100	0.423500
H381	H38	0.810700	0.174300	0.391900
H391	H39	0.724800	0.334200	0.419400
H401	H40	0.519000	0.255200	0.508100
H411	H41	0.322200	0.897000	0.163900
H421	H42	0.487800	0.848000	0.160800
H431	H43	0.467000	0.887600	0.343400
H441	H44	0.300200	0.937400	0.346500
H451	H45	0.736900	0.590700	0.136200
H461	H46	0.608700	0.685300	0.202700
H471	H47	0.736700	0.869700	0.207800
H481	H48	0.867100	0.771900	0.142800
H491	H49	0.888100	0.441300	0.378100
H501	H50	0.912900	0.281700	0.367100
H511	H51	0.961700	0.318900	0.182000
H521	H52	0.931400	0.479600	0.190700
H531	H53	0.791200	0.849600	0.367000
H541	H54	0.905600	0.722200	0.312900
H551	H55	0.730500	0.578700	0.345200
H561	H56	0.618400	0.706400	0.400300
H571	H57	0.061100	0.747900	0.923500
H581	H58	0.174300	0.810700	0.891900
H591	H59	0.334200	0.724800	0.919400
H601	H60	0.255200	0.519000	0.008100
H611	H61	0.103000	0.677800	0.336100
H621	H62	0.152000	0.512200	0.339200
H631	H63	0.112400	0.533000	0.156600
H641	H64	0.062600	0.699800	0.153500
H651	H65	0.409300	0.263100	0.363800
H661	H66	0.314700	0.391300	0.297300
H671	H67	0.130300	0.263300	0.292200
H681	H68	0.228100	0.132900	0.357200
H691	H69	0.558700	0.111900	0.121900
H701	H70	0.718300	0.087100	0.132900
H711	H71	0.681100	0.038300	0.318000
H721	H72	0.520400	0.068600	0.309300
H731	H73	0.150400	0.208800	0.133000
H741	H74	0.277800	0.094400	0.187100
H751	H75	0.421300	0.269500	0.154800
H761	H76	0.293600	0.381600	0.099700
H771	H77	0.252100	0.938900	0.576500
H781	H78	0.189300	0.825700	0.608100
H791	H79	0.275200	0.665800	0.580600
H801	H80	0.481000	0.744800	0.491900
C11	C1	0.706590	0.079990	0.744060
C21	C2	0.648600	0.105600	0.799660
C31	C3	0.549860	0.134260	0.801830
C41	C4	0.506540	0.136540	0.748080
C51	C5	0.562580	0.110380	0.692830
C61	C6	0.662220	0.081420	0.690860
C71	C7	0.815740	0.046140	0.744060
C81	C8	0.186240	0.326520	0.868650
C91	C9	0.262890	0.353290	0.849700
C101	C10	0.339710	0.296710	0.809600
C111	C11	0.339080	0.213880	0.788310
C121	C12	0.263260	0.186460	0.806200
C131	C13	0.185500	0.244900	0.846020
C141	C14	0.106360	0.386700	0.913650
C151	C15	0.094140	0.523940	0.715400
C161	C16	0.098440	0.583240	0.661400
C171	C17	0.082440	0.678640	0.668180
C181	C18	0.059670	0.716490	0.726070
C191	C19	0.054200	0.656000	0.778710
C201	C20	0.071800	0.560200	0.773750
C211	C21	0.039140	0.821940	0.732300
C221	C22	0.305550	0.209690	0.610000
C231	C23	0.220490	0.205290	0.636950
C241	C24	0.152300	0.280900	0.669700
C251	C25	0.171640	0.361640	0.676200
C261	C26	0.256980	0.366980	0.650200
C271	C27	0.323700	0.290700	0.617200
C281	C28	0.378670	0.126950	0.573770
C291	C29	0.586770	0.448970	0.014800
C301	C30	0.875120	0.286720	0.065300
C311	C31	0.807730	0.248730	0.084600
C321	C32	0.712650	0.300050	0.068600
C331	C33	0.687610	0.389610	0.034030
C341	C34	0.760510	0.421970	0.015730
C351	C35	0.920010	0.293410	0.755940
C361	C36	0.894400	0.351400	0.700340
C371	C37	0.865740	0.450140	0.698170
C381	C38	0.863460	0.493460	0.751920
C391	C39	0.889620	0.437420	0.807170
C401	C40	0.918580	0.337780	0.809140
C411	C41	0.953860	0.184260	0.755940
C421	C42	0.673480	0.813760	0.631350
C431	C43	0.646710	0.737110	0.650300
C441	C44	0.703290	0.660290	0.690400
C451	C45	0.786120	0.660920	0.711690
C461	C46	0.813540	0.736740	0.693800
C471	C47	0.755100	0.814500	0.653980
C481	C48	0.613300	0.893640	0.586350
C491	C49	0.476060	0.905860	0.784600
C501	C50	0.416760	0.901560	0.838600
C511	C51	0.321360	0.917560	0.831820
C521	C52	0.283510	0.940330	0.773930
C531	C53	0.344000	0.945800	0.721290
C541	C54	0.439800	0.928200	0.726250
C551	C55	0.178060	0.960860	0.767700
C561	C56	0.790310	0.694450	0.890000
C571	C57	0.794710	0.779510	0.863050
C581	C58	0.719100	0.847700	0.830300
C591	C59	0.638360	0.828360	0.823800
C601	C60	0.633020	0.743020	0.849800
C611	C61	0.709300	0.676300	0.882800
C621	C62	0.873050	0.621330	0.926230
C631	C63	0.551030	0.413230	0.485200
C641	C64	0.713280	0.124880	0.434700
C651	C65	0.751270	0.192270	0.415400
C661	C66	0.699950	0.287350	0.431400
C671	C67	0.610390	0.312390	0.465970
C681	C68	0.578030	0.239490	0.484270
C691	C69	0.293410	0.920010	0.255940
C701	C70	0.351400	0.894400	0.200340
C711	C71	0.450140	0.865740	0.198170
C721	C72	0.493460	0.863460	0.251920
C731	C73	0.437420	0.889620	0.307170
C741	C74	0.337780	0.918580	0.309140
C751	C75	0.184260	0.953860	0.255940
C761	C76	0.813760	0.673480	0.131350
C771	C77	0.737110	0.646710	0.150300
C781	C78	0.660290	0.703290	0.190400
C791	C79	0.660920	0.786120	0.211690
C801	C80	0.736740	0.813540	0.193800
C811	C81	0.814500	0.755100	0.153980
C821	C82	0.893640	0.613300	0.086350
C831	C83	0.905860	0.476060	0.284600
C841	C84	0.901560	0.416760	0.338600
C851	C85	0.917560	0.321360	0.331820
C861	C86	0.940330	0.283510	0.273930
C871	C87	0.945800	0.344000	0.221290
C881	C88	0.928200	0.439800	0.226250
C891	C89	0.960860	0.178060	0.267700
C901	C90	0.694450	0.790310	0.390000
C911	C91	0.779510	0.794710	0.363050
C921	C92	0.847700	0.719100	0.330300
C931	C93	0.828360	0.638360	0.323800
C941	C94	0.743020	0.633020	0.349800
C951	C95	0.676300	0.709300	0.382800
C961	C96	0.621330	0.873050	0.426230
C971	C97	0.413230	0.551030	0.985200
C981	C98	0.124880	0.713280	0.934700
C991	C99	0.192270	0.751270	0.915400
C1001	C100	0.287350	0.699950	0.931400
C1011	C101	0.312390	0.610390	0.965970
C1021	C102	0.239490	0.578030	0.984270
C1031	C103	0.079990	0.706590	0.244060
C1041	C104	0.105600	0.648600	0.299660
C1051	C105	0.134260	0.549860	0.301830
C1061	C106	0.136540	0.506540	0.248080
C1071	C107	0.110380	0.562580	0.192830
C1081	C108	0.081420	0.662220	0.190860
C1091	C109	0.046140	0.815740	0.244060
C1101	C110	0.326520	0.186240	0.368650
C1111	C111	0.353290	0.262890	0.349700
C1121	C112	0.296710	0.339710	0.309600
C1131	C113	0.213880	0.339080	0.288310
C1141	C114	0.186460	0.263260	0.306200
C1151	C115	0.244900	0.185500	0.346020
C1161	C116	0.386700	0.106360	0.413650
C1171	C117	0.523940	0.094140	0.215400
C1181	C118	0.583240	0.098440	0.161400
C1191	C119	0.678640	0.082440	0.168180
C1201	C120	0.716490	0.059670	0.226070
C1211	C121	0.656000	0.054200	0.278710
C1221	C122	0.560200	0.071800	0.273750
C1231	C123	0.821940	0.039140	0.232300
C1241	C124	0.209690	0.305550	0.110000
C1251	C125	0.205290	0.220490	0.136950
C1261	C126	0.280900	0.152300	0.169700
C1271	C127	0.361640	0.171640	0.176200
C1281	C128	0.366980	0.256980	0.150200
C1291	C129	0.290700	0.323700	0.117200
C1301	C130	0.126950	0.378670	0.073770
C1311	C131	0.448970	0.586770	0.514800
C1321	C132	0.286720	0.875120	0.565300
C1331	C133	0.248730	0.807730	0.584600
C1341	C134	0.300050	0.712650	0.568600
C1351	C135	0.389610	0.687610	0.534030
C1361	C136	0.421970	0.760510	0.515730
N11	N1	0.517420	0.419120	0.039120
N21	N2	0.571880	0.527680	0.976300
N31	N3	0.853350	0.371150	0.031080
N41	N4	0.580880	0.482580	0.460880
N51	N5	0.472320	0.428120	0.523700
N61	N6	0.628850	0.146650	0.468920
N71	N7	0.482580	0.580880	0.960880
N81	N8	0.428120	0.472320	0.023700
N91	N9	0.146650	0.628850	0.968920
N101	N10	0.419120	0.517420	0.539120
N111	N11	0.527680	0.571880	0.476300
N121	N12	0.371150	0.853350	0.531080
O11	O1	0.409300	0.156600	0.745860
O21	O2	0.864370	0.034310	0.692240
O31	O3	0.849880	0.033580	0.796980
O41	O4	0.041870	0.354910	0.935510
O51	O5	0.108240	0.463360	0.928640
O61	O6	0.101900	0.429680	0.714070
O71	O7	0.046480	0.870820	0.681870
O81	O8	0.016710	0.853990	0.785920
O91	O9	0.353660	0.059180	0.563760
O101	O10	0.459850	0.129930	0.554990
O111	O11	0.843400	0.590700	0.754140
O121	O12	0.965690	0.135630	0.807760
O131	O13	0.966420	0.150120	0.703020
O141	O14	0.645090	0.958130	0.564490
O151	O15	0.536640	0.891760	0.571360
O161	O16	0.570320	0.898100	0.785930
O171	O17	0.129180	0.953520	0.818130
O181	O18	0.146010	0.983290	0.714080
O191	O19	0.940820	0.646340	0.936240
O201	O20	0.870070	0.540150	0.945010
O211	O21	0.590700	0.843400	0.254140
O221	O22	0.135630	0.965690	0.307760
O231	O23	0.150120	0.966420	0.203020
O241	O24	0.958130	0.645090	0.064490
O251	O25	0.891760	0.536640	0.071360
O261	O26	0.898100	0.570320	0.285930
O271	O27	0.953520	0.129180	0.318130
O281	O28	0.983290	0.146010	0.214080
O291	O29	0.646340	0.940820	0.436240
O301	O30	0.540150	0.870070	0.445010
O311	O31	0.156600	0.409300	0.245860
O321	O32	0.034310	0.864370	0.192240
O331	O33	0.033580	0.849880	0.296980
O341	O34	0.354910	0.041870	0.435510
O351	O35	0.463360	0.108240	0.428640
O361	O36	0.429680	0.101900	0.214070
O371	O37	0.870820	0.046480	0.181870
O381	O38	0.853990	0.016710	0.285920
O391	O39	0.059180	0.353660	0.063760
O401	O40	0.129930	0.459850	0.054990
