data_UVUWAL_clean_PM
_symmetry_space_group_name_H-M	'P1'
_cell_length_a	15.455600
_cell_length_b	18.381200
_cell_length_c	31.090100
_cell_angle_alpha	90.000000
_cell_angle_beta	90.000000
_cell_angle_gamma	90.000000
_symmetry_Int_Tables_number 1

loop_
_symmetry_equiv_pos_as_xyz
'x,y,z'

loop_
_atom_site_label
_atom_site_type_symbol
_atom_site_fract_x
_atom_site_fract_y
_atom_site_fract_z
C11	C1	0.683000	0.257570	0.187840
C21	C2	0.748600	0.258230	0.223900
C31	C3	0.779800	0.193100	0.240840
H11	H1	0.757900	0.149100	0.230800
C41	C4	0.842900	0.193230	0.272340
H21	H2	0.863100	0.149400	0.283300
C51	C5	0.876220	0.258540	0.287710
C61	C6	0.843900	0.323530	0.271440
H31	H3	0.864900	0.367500	0.281900
C71	C7	0.780700	0.323370	0.239880
H41	H4	0.759700	0.367300	0.229300
C81	C8	0.947700	0.258800	0.320390
C91	C9	0.697600	0.252500	0.069300
C101	C10	0.766200	0.251740	0.035160
C111	C11	0.802700	0.316000	0.020980
H51	H5	0.784800	0.360000	0.032800
C121	C12	0.865600	0.315370	0.989360
H61	H6	0.890000	0.358900	0.980200
C131	C13	0.892600	0.250160	0.971240
C141	C14	0.855600	0.185690	0.985580
H71	H7	0.873200	0.141600	0.973800
C151	C15	0.793000	0.186610	0.017160
H81	H8	0.768500	0.143100	0.026400
C161	C16	0.960100	0.249360	0.936470
C171	C17	0.591900	0.486200	0.152390
H91	H9	0.603600	0.464100	0.178700
C181	C18	0.590900	0.560730	0.150480
H101	H10	0.601300	0.588100	0.175100
C191	C19	0.573900	0.595580	0.111080
C201	C20	0.559800	0.551420	0.075730
H111	H11	0.548800	0.571900	0.048900
C211	C21	0.562200	0.476460	0.080590
H121	H12	0.553200	0.447500	0.056500
C221	C22	0.572000	0.675700	0.109210
C231	C23	0.516200	0.715230	0.081220
C241	C24	0.514800	0.793770	0.082000
C251	C25	0.571000	0.833330	0.109690
C261	C26	0.625200	0.792560	0.134940
H131	H13	0.663600	0.816500	0.153100
C271	C27	0.625100	0.716240	0.134660
H141	H14	0.663300	0.692100	0.152800
C281	C28	0.572300	0.913340	0.112540
C291	C29	0.649400	0.951300	0.119520
H151	H15	0.701700	0.926400	0.120600
C301	C30	0.647500	0.025300	0.124730
H161	H16	0.699500	0.049500	0.129200
C311	C31	0.501300	0.028740	0.117330
H171	H17	0.450000	0.055200	0.117100
C321	C32	0.497100	0.954470	0.111100
H181	H18	0.444100	0.932100	0.106000
N11	N1	0.576890	0.443890	0.118320
N21	N2	0.575180	0.064280	0.123720
N31	N3	0.460630	0.686900	0.052200
N41	N4	0.458110	0.822500	0.053690
O11	O1	0.656210	0.317840	0.174870
O21	O2	0.662410	0.196680	0.172890
O31	O3	0.972710	0.319090	0.333870
O41	O4	0.978390	0.197770	0.330340
O51	O5	0.673580	0.313190	0.083240
O61	O6	0.667780	0.192340	0.081220
O71	O7	0.983010	0.309880	0.921950
O81	O8	0.989620	0.188740	0.925600
S11	S1	0.413700	0.754770	0.029290
Zn11	Zn1	0.573490	0.333550	0.124210
Zn21	Zn2	0.573660	0.174620	0.125950
C331	C33	0.183000	0.242430	0.812160
C341	C34	0.248600	0.241770	0.776100
C351	C35	0.279800	0.306900	0.759160
H191	H19	0.257900	0.350900	0.769200
C361	C36	0.342900	0.306770	0.727660
H201	H20	0.363100	0.350600	0.716700
C371	C37	0.376220	0.241460	0.712290
C381	C38	0.343900	0.176470	0.728560
H211	H21	0.364900	0.132500	0.718100
C391	C39	0.280700	0.176630	0.760120
H221	H22	0.259700	0.132700	0.770700
C401	C40	0.447700	0.241200	0.679610
C411	C41	0.197600	0.247500	0.930700
C421	C42	0.266200	0.248260	0.964840
C431	C43	0.302700	0.184000	0.979020
H231	H23	0.284800	0.140000	0.967200
C441	C44	0.365600	0.184630	0.010640
H241	H24	0.390000	0.141100	0.019800
C451	C45	0.392600	0.249840	0.028760
C461	C46	0.355600	0.314310	0.014420
H251	H25	0.373200	0.358400	0.026200
C471	C47	0.293000	0.313390	0.982840
H261	H26	0.268500	0.356900	0.973600
C481	C48	0.460100	0.250640	0.063530
C491	C49	0.091900	0.013800	0.847610
H271	H27	0.103600	0.035900	0.821300
C501	C50	0.090900	0.939270	0.849520
H281	H28	0.101300	0.911900	0.824900
C511	C51	0.073900	0.904420	0.888920
C521	C52	0.059800	0.948580	0.924270
H291	H29	0.048800	0.928100	0.951100
C531	C53	0.062200	0.023540	0.919410
H301	H30	0.053200	0.052500	0.943500
C541	C54	0.072000	0.824300	0.890790
C551	C55	0.016200	0.784770	0.918780
C561	C56	0.014800	0.706230	0.918000
C571	C57	0.071000	0.666670	0.890310
C581	C58	0.125200	0.707440	0.865060
H311	H31	0.163600	0.683500	0.846900
C591	C59	0.125100	0.783760	0.865340
H321	H32	0.163300	0.807900	0.847200
C601	C60	0.072300	0.586660	0.887460
C611	C61	0.149400	0.548700	0.880480
H331	H33	0.201700	0.573600	0.879400
C621	C62	0.147500	0.474700	0.875270
H341	H34	0.199500	0.450500	0.870800
C631	C63	0.001300	0.471260	0.882670
H351	H35	0.950000	0.444800	0.882900
C641	C64	0.997100	0.545530	0.888900
H361	H36	0.944100	0.567900	0.894000
N51	N5	0.076890	0.056110	0.881680
N61	N6	0.075180	0.435720	0.876280
N71	N7	0.960630	0.813100	0.947800
N81	N8	0.958110	0.677500	0.946310
O91	O9	0.156210	0.182160	0.825130
O101	O10	0.162410	0.303320	0.827110
O111	O11	0.472710	0.180910	0.666130
O121	O12	0.478390	0.302230	0.669660
O131	O13	0.173580	0.186810	0.916760
O141	O14	0.167780	0.307660	0.918780
O151	O15	0.483010	0.190120	0.078050
O161	O16	0.489620	0.311260	0.074400
S21	S2	0.913700	0.745230	0.970710
Zn31	Zn3	0.073490	0.166450	0.875790
Zn41	Zn4	0.073660	0.325380	0.874050
C651	C65	0.183000	0.257570	0.312160
C661	C66	0.248600	0.258230	0.276100
C671	C67	0.279800	0.193100	0.259160
H371	H37	0.257900	0.149100	0.269200
C681	C68	0.342900	0.193230	0.227660
H381	H38	0.363100	0.149400	0.216700
C691	C69	0.376220	0.258540	0.212290
C701	C70	0.343900	0.323530	0.228560
H391	H39	0.364900	0.367500	0.218100
C711	C71	0.280700	0.323370	0.260120
H401	H40	0.259700	0.367300	0.270700
C721	C72	0.447700	0.258800	0.179610
C731	C73	0.197600	0.252500	0.430700
C741	C74	0.266200	0.251740	0.464840
C751	C75	0.302700	0.316000	0.479020
H411	H41	0.284800	0.360000	0.467200
C761	C76	0.365600	0.315370	0.510640
H421	H42	0.390000	0.358900	0.519800
C771	C77	0.392600	0.250160	0.528760
C781	C78	0.355600	0.185690	0.514420
H431	H43	0.373200	0.141600	0.526200
C791	C79	0.293000	0.186610	0.482840
H441	H44	0.268500	0.143100	0.473600
C801	C80	0.460100	0.249360	0.563530
C811	C81	0.091900	0.486200	0.347610
H451	H45	0.103600	0.464100	0.321300
C821	C82	0.090900	0.560730	0.349520
H461	H46	0.101300	0.588100	0.324900
C831	C83	0.073900	0.595580	0.388920
C841	C84	0.059800	0.551420	0.424270
H471	H47	0.048800	0.571900	0.451100
C851	C85	0.062200	0.476460	0.419410
H481	H48	0.053200	0.447500	0.443500
C861	C86	0.072000	0.675700	0.390790
C871	C87	0.016200	0.715230	0.418780
C881	C88	0.014800	0.793770	0.418000
C891	C89	0.071000	0.833330	0.390310
C901	C90	0.125200	0.792560	0.365060
H491	H49	0.163600	0.816500	0.346900
C911	C91	0.125100	0.716240	0.365340
H501	H50	0.163300	0.692100	0.347200
C921	C92	0.072300	0.913340	0.387460
C931	C93	0.149400	0.951300	0.380480
H511	H51	0.201700	0.926400	0.379400
C941	C94	0.147500	0.025300	0.375270
H521	H52	0.199500	0.049500	0.370800
C951	C95	0.001300	0.028740	0.382670
H531	H53	0.950000	0.055200	0.382900
C961	C96	0.997100	0.954470	0.388900
H541	H54	0.944100	0.932100	0.394000
N91	N9	0.076890	0.443890	0.381680
N101	N10	0.075180	0.064280	0.376280
N111	N11	0.960630	0.686900	0.447800
N121	N12	0.958110	0.822500	0.446310
O171	O17	0.156210	0.317840	0.325130
O181	O18	0.162410	0.196680	0.327110
O191	O19	0.472710	0.319090	0.166130
O201	O20	0.478390	0.197770	0.169660
O211	O21	0.173580	0.313190	0.416760
O221	O22	0.167780	0.192340	0.418780
O231	O23	0.483010	0.309880	0.578050
O241	O24	0.489620	0.188740	0.574400
S31	S3	0.913700	0.754770	0.470710
Zn51	Zn5	0.073490	0.333550	0.375790
Zn61	Zn6	0.073660	0.174620	0.374050
C971	C97	0.683000	0.242430	0.687840
C981	C98	0.748600	0.241770	0.723900
C991	C99	0.779800	0.306900	0.740840
H551	H55	0.757900	0.350900	0.730800
C1001	C100	0.842900	0.306770	0.772340
H561	H56	0.863100	0.350600	0.783300
C1011	C101	0.876220	0.241460	0.787710
C1021	C102	0.843900	0.176470	0.771440
H571	H57	0.864900	0.132500	0.781900
C1031	C103	0.780700	0.176630	0.739880
H581	H58	0.759700	0.132700	0.729300
C1041	C104	0.947700	0.241200	0.820390
C1051	C105	0.697600	0.247500	0.569300
C1061	C106	0.766200	0.248260	0.535160
C1071	C107	0.802700	0.184000	0.520980
H591	H59	0.784800	0.140000	0.532800
C1081	C108	0.865600	0.184630	0.489360
H601	H60	0.890000	0.141100	0.480200
C1091	C109	0.892600	0.249840	0.471240
C1101	C110	0.855600	0.314310	0.485580
H611	H61	0.873200	0.358400	0.473800
C1111	C111	0.793000	0.313390	0.517160
H621	H62	0.768500	0.356900	0.526400
C1121	C112	0.960100	0.250640	0.436470
C1131	C113	0.591900	0.013800	0.652390
H631	H63	0.603600	0.035900	0.678700
C1141	C114	0.590900	0.939270	0.650480
H641	H64	0.601300	0.911900	0.675100
C1151	C115	0.573900	0.904420	0.611080
C1161	C116	0.559800	0.948580	0.575730
H651	H65	0.548800	0.928100	0.548900
C1171	C117	0.562200	0.023540	0.580590
H661	H66	0.553200	0.052500	0.556500
C1181	C118	0.572000	0.824300	0.609210
C1191	C119	0.516200	0.784770	0.581220
C1201	C120	0.514800	0.706230	0.582000
C1211	C121	0.571000	0.666670	0.609690
C1221	C122	0.625200	0.707440	0.634940
H671	H67	0.663600	0.683500	0.653100
C1231	C123	0.625100	0.783760	0.634660
H681	H68	0.663300	0.807900	0.652800
C1241	C124	0.572300	0.586660	0.612540
C1251	C125	0.649400	0.548700	0.619520
H691	H69	0.701700	0.573600	0.620600
C1261	C126	0.647500	0.474700	0.624730
H701	H70	0.699500	0.450500	0.629200
C1271	C127	0.501300	0.471260	0.617330
H711	H71	0.450000	0.444800	0.617100
C1281	C128	0.497100	0.545530	0.611100
H721	H72	0.444100	0.567900	0.606000
N131	N13	0.576890	0.056110	0.618320
N141	N14	0.575180	0.435720	0.623720
N151	N15	0.460630	0.813100	0.552200
N161	N16	0.458110	0.677500	0.553690
O251	O25	0.656210	0.182160	0.674870
O261	O26	0.662410	0.303320	0.672890
O271	O27	0.972710	0.180910	0.833870
O281	O28	0.978390	0.302230	0.830340
O291	O29	0.673580	0.186810	0.583240
O301	O30	0.667780	0.307660	0.581220
O311	O31	0.983010	0.190120	0.421950
O321	O32	0.989620	0.311260	0.425600
S41	S4	0.413700	0.745230	0.529290
Zn71	Zn7	0.573490	0.166450	0.624210
Zn81	Zn8	0.573660	0.325380	0.625950
C1291	C129	0.817000	0.742430	0.687840
C1301	C130	0.751400	0.741770	0.723900
C1311	C131	0.720200	0.806900	0.740840
H731	H73	0.742100	0.850900	0.730800
C1321	C132	0.657100	0.806770	0.772340
H741	H74	0.636900	0.850600	0.783300
C1331	C133	0.623780	0.741460	0.787710
C1341	C134	0.656100	0.676470	0.771440
H751	H75	0.635100	0.632500	0.781900
C1351	C135	0.719300	0.676630	0.739880
H761	H76	0.740300	0.632700	0.729300
C1361	C136	0.552300	0.741200	0.820390
C1371	C137	0.802400	0.747500	0.569300
C1381	C138	0.733800	0.748260	0.535160
C1391	C139	0.697300	0.684000	0.520980
H771	H77	0.715200	0.640000	0.532800
C1401	C140	0.634400	0.684630	0.489360
H781	H78	0.610000	0.641100	0.480200
C1411	C141	0.607400	0.749840	0.471240
C1421	C142	0.644400	0.814310	0.485580
H791	H79	0.626800	0.858400	0.473800
C1431	C143	0.707000	0.813390	0.517160
H801	H80	0.731500	0.856900	0.526400
C1441	C144	0.539900	0.750640	0.436470
C1451	C145	0.908100	0.513800	0.652390
H811	H81	0.896400	0.535900	0.678700
C1461	C146	0.909100	0.439270	0.650480
H821	H82	0.898700	0.411900	0.675100
C1471	C147	0.926100	0.404420	0.611080
C1481	C148	0.940200	0.448580	0.575730
H831	H83	0.951200	0.428100	0.548900
C1491	C149	0.937800	0.523540	0.580590
H841	H84	0.946800	0.552500	0.556500
C1501	C150	0.928000	0.324300	0.609210
C1511	C151	0.983800	0.284770	0.581220
C1521	C152	0.985200	0.206230	0.582000
C1531	C153	0.929000	0.166670	0.609690
C1541	C154	0.874800	0.207440	0.634940
H851	H85	0.836400	0.183500	0.653100
C1551	C155	0.874900	0.283760	0.634660
H861	H86	0.836700	0.307900	0.652800
C1561	C156	0.927700	0.086660	0.612540
C1571	C157	0.850600	0.048700	0.619520
H871	H87	0.798300	0.073600	0.620600
C1581	C158	0.852500	0.974700	0.624730
H881	H88	0.800500	0.950500	0.629200
C1591	C159	0.998700	0.971260	0.617330
H891	H89	0.050000	0.944800	0.617100
C1601	C160	0.002900	0.045530	0.611100
H901	H90	0.055900	0.067900	0.606000
N171	N17	0.923110	0.556110	0.618320
N181	N18	0.924820	0.935720	0.623720
N191	N19	0.039370	0.313100	0.552200
N201	N20	0.041890	0.177500	0.553690
O331	O33	0.843790	0.682160	0.674870
O341	O34	0.837590	0.803320	0.672890
O351	O35	0.527290	0.680910	0.833870
O361	O36	0.521610	0.802230	0.830340
O371	O37	0.826420	0.686810	0.583240
O381	O38	0.832220	0.807660	0.581220
O391	O39	0.516990	0.690120	0.421950
O401	O40	0.510380	0.811260	0.425600
S51	S5	0.086300	0.245230	0.529290
Zn91	Zn9	0.926510	0.666450	0.624210
Zn101	Zn10	0.926340	0.825380	0.625950
C1611	C161	0.317000	0.757570	0.312160
C1621	C162	0.251400	0.758230	0.276100
C1631	C163	0.220200	0.693100	0.259160
H911	H91	0.242100	0.649100	0.269200
C1641	C164	0.157100	0.693230	0.227660
H921	H92	0.136900	0.649400	0.216700
C1651	C165	0.123780	0.758540	0.212290
C1661	C166	0.156100	0.823530	0.228560
H931	H93	0.135100	0.867500	0.218100
C1671	C167	0.219300	0.823370	0.260120
H941	H94	0.240300	0.867300	0.270700
C1681	C168	0.052300	0.758800	0.179610
C1691	C169	0.302400	0.752500	0.430700
C1701	C170	0.233800	0.751740	0.464840
C1711	C171	0.197300	0.816000	0.479020
H951	H95	0.215200	0.860000	0.467200
C1721	C172	0.134400	0.815370	0.510640
H961	H96	0.110000	0.858900	0.519800
C1731	C173	0.107400	0.750160	0.528760
C1741	C174	0.144400	0.685690	0.514420
H971	H97	0.126800	0.641600	0.526200
C1751	C175	0.207000	0.686610	0.482840
H981	H98	0.231500	0.643100	0.473600
C1761	C176	0.039900	0.749360	0.563530
C1771	C177	0.408100	0.986200	0.347610
H991	H99	0.396400	0.964100	0.321300
C1781	C178	0.409100	0.060730	0.349520
H1001	H100	0.398700	0.088100	0.324900
C1791	C179	0.426100	0.095580	0.388920
C1801	C180	0.440200	0.051420	0.424270
H1011	H101	0.451200	0.071900	0.451100
C1811	C181	0.437800	0.976460	0.419410
H1021	H102	0.446800	0.947500	0.443500
C1821	C182	0.428000	0.175700	0.390790
C1831	C183	0.483800	0.215230	0.418780
C1841	C184	0.485200	0.293770	0.418000
C1851	C185	0.429000	0.333330	0.390310
C1861	C186	0.374800	0.292560	0.365060
H1031	H103	0.336400	0.316500	0.346900
C1871	C187	0.374900	0.216240	0.365340
H1041	H104	0.336700	0.192100	0.347200
C1881	C188	0.427700	0.413340	0.387460
C1891	C189	0.350600	0.451300	0.380480
H1051	H105	0.298300	0.426400	0.379400
C1901	C190	0.352500	0.525300	0.375270
H1061	H106	0.300500	0.549500	0.370800
C1911	C191	0.498700	0.528740	0.382670
H1071	H107	0.550000	0.555200	0.382900
C1921	C192	0.502900	0.454470	0.388900
H1081	H108	0.555900	0.432100	0.394000
N211	N21	0.423110	0.943890	0.381680
N221	N22	0.424820	0.564280	0.376280
N231	N23	0.539370	0.186900	0.447800
N241	N24	0.541890	0.322500	0.446310
O411	O41	0.343790	0.817840	0.325130
O421	O42	0.337590	0.696680	0.327110
O431	O43	0.027290	0.819090	0.166130
O441	O44	0.021610	0.697770	0.169660
O451	O45	0.326420	0.813190	0.416760
O461	O46	0.332220	0.692340	0.418780
O471	O47	0.016990	0.809880	0.578050
O481	O48	0.010380	0.688740	0.574400
S61	S6	0.586300	0.254770	0.470710
Zn111	Zn11	0.426510	0.833550	0.375790
Zn121	Zn12	0.426340	0.674620	0.374050
C1931	C193	0.317000	0.742430	0.812160
C1941	C194	0.251400	0.741770	0.776100
C1951	C195	0.220200	0.806900	0.759160
H1091	H109	0.242100	0.850900	0.769200
C1961	C196	0.157100	0.806770	0.727660
H1101	H110	0.136900	0.850600	0.716700
C1971	C197	0.123780	0.741460	0.712290
C1981	C198	0.156100	0.676470	0.728560
H1111	H111	0.135100	0.632500	0.718100
C1991	C199	0.219300	0.676630	0.760120
H1121	H112	0.240300	0.632700	0.770700
C2001	C200	0.052300	0.741200	0.679610
C2011	C201	0.302400	0.747500	0.930700
C2021	C202	0.233800	0.748260	0.964840
C2031	C203	0.197300	0.684000	0.979020
H1131	H113	0.215200	0.640000	0.967200
C2041	C204	0.134400	0.684630	0.010640
H1141	H114	0.110000	0.641100	0.019800
C2051	C205	0.107400	0.749840	0.028760
C2061	C206	0.144400	0.814310	0.014420
H1151	H115	0.126800	0.858400	0.026200
C2071	C207	0.207000	0.813390	0.982840
H1161	H116	0.231500	0.856900	0.973600
C2081	C208	0.039900	0.750640	0.063530
C2091	C209	0.408100	0.513800	0.847610
H1171	H117	0.396400	0.535900	0.821300
C2101	C210	0.409100	0.439270	0.849520
H1181	H118	0.398700	0.411900	0.824900
C2111	C211	0.426100	0.404420	0.888920
C2121	C212	0.440200	0.448580	0.924270
H1191	H119	0.451200	0.428100	0.951100
C2131	C213	0.437800	0.523540	0.919410
H1201	H120	0.446800	0.552500	0.943500
C2141	C214	0.428000	0.324300	0.890790
C2151	C215	0.483800	0.284770	0.918780
C2161	C216	0.485200	0.206230	0.918000
C2171	C217	0.429000	0.166670	0.890310
C2181	C218	0.374800	0.207440	0.865060
H1211	H121	0.336400	0.183500	0.846900
C2191	C219	0.374900	0.283760	0.865340
H1221	H122	0.336700	0.307900	0.847200
C2201	C220	0.427700	0.086660	0.887460
C2211	C221	0.350600	0.048700	0.880480
H1231	H123	0.298300	0.073600	0.879400
C2221	C222	0.352500	0.974700	0.875270
H1241	H124	0.300500	0.950500	0.870800
C2231	C223	0.498700	0.971260	0.882670
H1251	H125	0.550000	0.944800	0.882900
C2241	C224	0.502900	0.045530	0.888900
H1261	H126	0.555900	0.067900	0.894000
N251	N25	0.423110	0.556110	0.881680
N261	N26	0.424820	0.935720	0.876280
N271	N27	0.539370	0.313100	0.947800
N281	N28	0.541890	0.177500	0.946310
O491	O49	0.343790	0.682160	0.825130
O501	O50	0.337590	0.803320	0.827110
O511	O51	0.027290	0.680910	0.666130
O521	O52	0.021610	0.802230	0.669660
O531	O53	0.326420	0.686810	0.916760
O541	O54	0.332220	0.807660	0.918780
O551	O55	0.016990	0.690120	0.078050
O561	O56	0.010380	0.811260	0.074400
S71	S7	0.586300	0.245230	0.970710
Zn131	Zn13	0.426510	0.666450	0.875790
Zn141	Zn14	0.426340	0.825380	0.874050
C2251	C225	0.817000	0.757570	0.187840
C2261	C226	0.751400	0.758230	0.223900
C2271	C227	0.720200	0.693100	0.240840
H1271	H127	0.742100	0.649100	0.230800
C2281	C228	0.657100	0.693230	0.272340
H1281	H128	0.636900	0.649400	0.283300
C2291	C229	0.623780	0.758540	0.287710
C2301	C230	0.656100	0.823530	0.271440
H1291	H129	0.635100	0.867500	0.281900
C2311	C231	0.719300	0.823370	0.239880
H1301	H130	0.740300	0.867300	0.229300
C2321	C232	0.552300	0.758800	0.320390
C2331	C233	0.802400	0.752500	0.069300
C2341	C234	0.733800	0.751740	0.035160
C2351	C235	0.697300	0.816000	0.020980
H1311	H131	0.715200	0.860000	0.032800
C2361	C236	0.634400	0.815370	0.989360
H1321	H132	0.610000	0.858900	0.980200
C2371	C237	0.607400	0.750160	0.971240
C2381	C238	0.644400	0.685690	0.985580
H1331	H133	0.626800	0.641600	0.973800
C2391	C239	0.707000	0.686610	0.017160
H1341	H134	0.731500	0.643100	0.026400
C2401	C240	0.539900	0.749360	0.936470
C2411	C241	0.908100	0.986200	0.152390
H1351	H135	0.896400	0.964100	0.178700
C2421	C242	0.909100	0.060730	0.150480
H1361	H136	0.898700	0.088100	0.175100
C2431	C243	0.926100	0.095580	0.111080
C2441	C244	0.940200	0.051420	0.075730
H1371	H137	0.951200	0.071900	0.048900
C2451	C245	0.937800	0.976460	0.080590
H1381	H138	0.946800	0.947500	0.056500
C2461	C246	0.928000	0.175700	0.109210
C2471	C247	0.983800	0.215230	0.081220
C2481	C248	0.985200	0.293770	0.082000
C2491	C249	0.929000	0.333330	0.109690
C2501	C250	0.874800	0.292560	0.134940
H1391	H139	0.836400	0.316500	0.153100
C2511	C251	0.874900	0.216240	0.134660
H1401	H140	0.836700	0.192100	0.152800
C2521	C252	0.927700	0.413340	0.112540
C2531	C253	0.850600	0.451300	0.119520
H1411	H141	0.798300	0.426400	0.120600
C2541	C254	0.852500	0.525300	0.124730
H1421	H142	0.800500	0.549500	0.129200
C2551	C255	0.998700	0.528740	0.117330
H1431	H143	0.050000	0.555200	0.117100
C2561	C256	0.002900	0.454470	0.111100
H1441	H144	0.055900	0.432100	0.106000
N291	N29	0.923110	0.943890	0.118320
N301	N30	0.924820	0.564280	0.123720
N311	N31	0.039370	0.186900	0.052200
N321	N32	0.041890	0.322500	0.053690
O571	O57	0.843790	0.817840	0.174870
O581	O58	0.837590	0.696680	0.172890
O591	O59	0.527290	0.819090	0.333870
O601	O60	0.521610	0.697770	0.330340
O611	O61	0.826420	0.813190	0.083240
O621	O62	0.832220	0.692340	0.081220
O631	O63	0.516990	0.809880	0.921950
O641	O64	0.510380	0.688740	0.925600
S81	S8	0.086300	0.254770	0.029290
Zn151	Zn15	0.926510	0.833550	0.124210
Zn161	Zn16	0.926340	0.674620	0.125950
