data_UWALEL_clean_PM
_symmetry_space_group_name_H-M	'P1'
_cell_length_a	22.425800
_cell_length_b	22.425800
_cell_length_c	10.919000
_cell_angle_alpha	90.000000
_cell_angle_beta	90.000000
_cell_angle_gamma	120.000000
_symmetry_Int_Tables_number 1

loop_
_symmetry_equiv_pos_as_xyz
'x,y,z'

loop_
_atom_site_label
_atom_site_type_symbol
_atom_site_fract_x
_atom_site_fract_y
_atom_site_fract_z
C11	C1	0.442700	0.326000	0.079900
C21	C2	0.480800	0.289900	0.123100
C31	C3	0.444100	0.222500	0.163800
H11	H1	0.396200	0.199300	0.166900
C41	C4	0.481600	0.189400	0.201100
C51	C5	0.550500	0.222100	0.185100
H21	H2	0.574100	0.199500	0.207900
C61	C6	0.585900	0.284900	0.138400
C71	C7	0.551500	0.323000	0.112500
H31	H3	0.576300	0.369000	0.089100
C81	C8	0.440800	0.116900	0.246100
C91	C9	0.662900	0.321500	0.111000
C101	C10	0.706900	0.391500	0.112500
H41	H4	0.688300	0.419900	0.124600
C111	C11	0.771500	0.419400	0.098300
H51	H5	0.798800	0.467200	0.098600
C121	C12	0.801900	0.378000	0.081900
H61	H6	0.849300	0.397000	0.074600
C131	C13	0.757600	0.307800	0.077400
C141	C14	0.782500	0.258500	0.050000
C151	C15	0.753800	0.194400	0.105400
H71	H7	0.718700	0.182000	0.162400
C161	C16	0.776600	0.147700	0.077400
C171	C17	0.834000	0.167900	0.000600
H81	H8	0.853700	0.140200	0.992400
C181	C18	0.860300	0.228600	0.938200
C191	C19	0.836300	0.276900	0.969400
H91	H9	0.857700	0.320500	0.934200
C201	C20	0.748200	0.081300	0.149400
C211	C21	0.919400	0.251500	0.851900
O11	O1	0.949300	0.315200	0.819800
N11	N1	0.689300	0.278900	0.097800
O21	O2	0.375900	0.289600	0.087000
O31	O3	0.472300	0.384500	0.042700
O41	O4	0.376000	0.088700	0.246500
O51	O5	0.471400	0.086000	0.281900
O61	O6	0.687000	0.053500	0.183200
O71	O7	0.786700	0.058500	0.180200
O81	O8	0.935200	0.208400	0.818200
C221	C22	0.674000	0.116700	0.413230
C231	C23	0.710100	0.190900	0.456430
C241	C24	0.777500	0.221600	0.497130
H101	H10	0.800700	0.196900	0.500230
C251	C25	0.810600	0.292200	0.534430
C261	C26	0.777900	0.328400	0.518430
H111	H11	0.800500	0.374600	0.541230
C271	C27	0.715100	0.301000	0.471730
C281	C28	0.677000	0.228500	0.445830
H121	H12	0.631000	0.207300	0.422430
C291	C29	0.883100	0.323900	0.579430
C301	C30	0.678500	0.341400	0.444330
C311	C31	0.608500	0.315400	0.445830
H131	H13	0.580100	0.268400	0.457930
C321	C32	0.580600	0.352100	0.431630
H141	H14	0.532800	0.331600	0.431930
C331	C33	0.622000	0.423900	0.415230
H151	H15	0.603000	0.452300	0.407930
C341	C34	0.692200	0.449800	0.410730
C351	C35	0.741500	0.524000	0.383330
C361	C36	0.805600	0.559400	0.438730
H161	H16	0.818000	0.536700	0.495730
C371	C37	0.852300	0.628900	0.410730
C381	C38	0.832100	0.666100	0.333930
H171	H17	0.859800	0.713500	0.325730
C391	C39	0.771400	0.631700	0.271530
C401	C40	0.723100	0.559400	0.302730
H181	H18	0.679500	0.537200	0.267530
C411	C41	0.918700	0.666900	0.482730
C421	C42	0.748500	0.667900	0.185230
O91	O9	0.684800	0.634100	0.153130
N21	N2	0.721100	0.410400	0.431130
O101	O10	0.710400	0.086300	0.420330
O111	O11	0.615500	0.087800	0.376030
O121	O12	0.911300	0.287300	0.579830
O131	O13	0.914000	0.385400	0.615230
O141	O14	0.946500	0.633500	0.516530
O151	O15	0.941500	0.728200	0.513530
O161	O16	0.791600	0.726800	0.151530
C431	C43	0.883300	0.557300	0.746570
C441	C44	0.809100	0.519200	0.789770
C451	C45	0.778400	0.555900	0.830470
H191	H19	0.803100	0.603800	0.833570
C461	C46	0.707800	0.518400	0.867770
C471	C47	0.671600	0.449500	0.851770
H201	H20	0.625400	0.425900	0.874570
C481	C48	0.699000	0.414100	0.805070
C491	C49	0.771500	0.448500	0.779170
H211	H21	0.792700	0.423700	0.755770
C501	C50	0.676100	0.559200	0.912770
C511	C51	0.658600	0.337100	0.777670
C521	C52	0.684600	0.293100	0.779170
H221	H22	0.731600	0.311700	0.791270
C531	C53	0.647900	0.228500	0.764970
H231	H23	0.668400	0.201200	0.765270
C541	C54	0.576100	0.198100	0.748570
H241	H24	0.547700	0.150700	0.741270
C551	C55	0.550200	0.242400	0.744070
C561	C56	0.476000	0.217500	0.716670
C571	C57	0.440600	0.246200	0.772070
H251	H25	0.463300	0.281300	0.829070
C581	C58	0.371100	0.223400	0.744070
C591	C59	0.333900	0.166000	0.667270
H261	H26	0.286500	0.146300	0.659070
C601	C60	0.368300	0.139700	0.604870
C611	C61	0.440600	0.163700	0.636070
H271	H27	0.462800	0.142300	0.600870
C621	C62	0.333100	0.251800	0.816070
C631	C63	0.332100	0.080600	0.518570
O171	O17	0.365900	0.050700	0.486470
N31	N3	0.589600	0.310700	0.764470
O181	O18	0.913700	0.624100	0.753670
O191	O19	0.912200	0.527700	0.709370
O201	O20	0.712700	0.624000	0.913170
O211	O21	0.614600	0.528600	0.948570
O221	O22	0.366500	0.313000	0.849870
O231	O23	0.271800	0.213300	0.846870
O241	O24	0.273200	0.064800	0.484870
C641	C64	0.326000	0.442700	0.920100
C651	C65	0.289900	0.480800	0.876900
C661	C66	0.222500	0.444100	0.836200
H281	H28	0.199300	0.396200	0.833100
C671	C67	0.189400	0.481600	0.798900
C681	C68	0.222100	0.550500	0.814900
H291	H29	0.199500	0.574100	0.792100
C691	C69	0.284900	0.585900	0.861600
C701	C70	0.323000	0.551500	0.887500
H301	H30	0.369000	0.576300	0.910900
C711	C71	0.116900	0.440800	0.753900
C721	C72	0.321500	0.662900	0.889000
C731	C73	0.391500	0.706900	0.887500
H311	H31	0.419900	0.688300	0.875400
C741	C74	0.419400	0.771500	0.901700
H321	H32	0.467200	0.798800	0.901400
C751	C75	0.378000	0.801900	0.918100
H331	H33	0.397000	0.849300	0.925400
C761	C76	0.307800	0.757600	0.922600
C771	C77	0.258500	0.782500	0.950000
C781	C78	0.194400	0.753800	0.894600
H341	H34	0.182000	0.718700	0.837600
C791	C79	0.147700	0.776600	0.922600
C801	C80	0.167900	0.834000	0.999400
H351	H35	0.140200	0.853700	0.007600
C811	C81	0.228600	0.860300	0.061800
C821	C82	0.276900	0.836300	0.030600
H361	H36	0.320500	0.857700	0.065800
C831	C83	0.081300	0.748200	0.850600
C841	C84	0.251500	0.919400	0.148100
O251	O25	0.315200	0.949300	0.180200
N41	N4	0.278900	0.689300	0.902200
O261	O26	0.289600	0.375900	0.913000
O271	O27	0.384500	0.472300	0.957300
O281	O28	0.088700	0.376000	0.753500
O291	O29	0.086000	0.471400	0.718100
O301	O30	0.053500	0.687000	0.816800
O311	O31	0.058500	0.786700	0.819800
O321	O32	0.208400	0.935200	0.181800
C851	C85	0.116700	0.674000	0.586770
C861	C86	0.190900	0.710100	0.543570
C871	C87	0.221600	0.777500	0.502870
H371	H37	0.196900	0.800700	0.499770
C881	C88	0.292200	0.810600	0.465570
C891	C89	0.328400	0.777900	0.481570
H381	H38	0.374600	0.800500	0.458770
C901	C90	0.301000	0.715100	0.528270
C911	C91	0.228500	0.677000	0.554170
H391	H39	0.207300	0.631000	0.577570
C921	C92	0.323900	0.883100	0.420570
C931	C93	0.341400	0.678500	0.555670
C941	C94	0.315400	0.608500	0.554170
H401	H40	0.268400	0.580100	0.542070
C951	C95	0.352100	0.580600	0.568370
H411	H41	0.331600	0.532800	0.568070
C961	C96	0.423900	0.622000	0.584770
H421	H42	0.452300	0.603000	0.592070
C971	C97	0.449800	0.692200	0.589270
C981	C98	0.524000	0.741500	0.616670
C991	C99	0.559400	0.805600	0.561270
H431	H43	0.536700	0.818000	0.504270
C1001	C100	0.628900	0.852300	0.589270
C1011	C101	0.666100	0.832100	0.666070
H441	H44	0.713500	0.859800	0.674270
C1021	C102	0.631700	0.771400	0.728470
C1031	C103	0.559400	0.723100	0.697270
H451	H45	0.537200	0.679500	0.732470
C1041	C104	0.666900	0.918700	0.517270
C1051	C105	0.667900	0.748500	0.814770
O331	O33	0.634100	0.684800	0.846870
N51	N5	0.410400	0.721100	0.568870
O341	O34	0.086300	0.710400	0.579670
O351	O35	0.087800	0.615500	0.623970
O361	O36	0.287300	0.911300	0.420170
O371	O37	0.385400	0.914000	0.384770
O381	O38	0.633500	0.946500	0.483470
O391	O39	0.728200	0.941500	0.486470
O401	O40	0.726800	0.791600	0.848470
C1061	C106	0.557300	0.883300	0.253430
C1071	C107	0.519200	0.809100	0.210230
C1081	C108	0.555900	0.778400	0.169530
H461	H46	0.603800	0.803100	0.166430
C1091	C109	0.518400	0.707800	0.132230
C1101	C110	0.449500	0.671600	0.148230
H471	H47	0.425900	0.625400	0.125430
C1111	C111	0.414100	0.699000	0.194930
C1121	C112	0.448500	0.771500	0.220830
H481	H48	0.423700	0.792700	0.244230
C1131	C113	0.559200	0.676100	0.087230
C1141	C114	0.337100	0.658600	0.222330
C1151	C115	0.293100	0.684600	0.220830
H491	H49	0.311700	0.731600	0.208730
C1161	C116	0.228500	0.647900	0.235030
H501	H50	0.201200	0.668400	0.234730
C1171	C117	0.198100	0.576100	0.251430
H511	H51	0.150700	0.547700	0.258730
C1181	C118	0.242400	0.550200	0.255930
C1191	C119	0.217500	0.476000	0.283330
C1201	C120	0.246200	0.440600	0.227930
H521	H52	0.281300	0.463300	0.170930
C1211	C121	0.223400	0.371100	0.255930
C1221	C122	0.166000	0.333900	0.332730
H531	H53	0.146300	0.286500	0.340930
C1231	C123	0.139700	0.368300	0.395130
C1241	C124	0.163700	0.440600	0.363930
H541	H54	0.142300	0.462800	0.399130
C1251	C125	0.251800	0.333100	0.183930
C1261	C126	0.080600	0.332100	0.481430
O411	O41	0.050700	0.365900	0.513530
N61	N6	0.310700	0.589600	0.235530
O421	O42	0.624100	0.913700	0.246330
O431	O43	0.527700	0.912200	0.290630
O441	O44	0.624000	0.712700	0.086830
O451	O45	0.528600	0.614600	0.051430
O461	O46	0.313000	0.366500	0.150130
O471	O47	0.213300	0.271800	0.153130
O481	O48	0.064800	0.273200	0.515130
Cu11	Cu1	0.336960	0.000000	0.333330
Cu21	Cu2	0.000000	0.336960	0.666670
Cu31	Cu3	0.663040	0.663040	0.000000
Cu41	Cu4	0.336790	0.336790	0.000000
Cu51	Cu5	0.663210	0.000000	0.333330
Cu61	Cu6	0.000000	0.663210	0.666670
