data_UWELIS_clean_PM
_symmetry_space_group_name_H-M	'P1'
_cell_length_a	13.265000
_cell_length_b	13.983000
_cell_length_c	14.189000
_cell_angle_alpha	112.066000
_cell_angle_beta	90.000000
_cell_angle_gamma	90.000000
_symmetry_Int_Tables_number 1

loop_
_symmetry_equiv_pos_as_xyz
'x,y,z'

loop_
_atom_site_label
_atom_site_type_symbol
_atom_site_fract_x
_atom_site_fract_y
_atom_site_fract_z
Zn11	Zn1	0.553140	0.400330	0.948970
Zn21	Zn2	0.053140	0.599670	0.551030
Zn31	Zn3	0.446860	0.599670	0.051030
Zn41	Zn4	0.946860	0.400330	0.448970
H11	H1	0.257700	0.722500	0.087800
H21	H2	0.205900	0.894900	0.153800
H31	H3	0.493200	0.986000	0.215100
H41	H4	0.542500	0.814300	0.159500
H51	H5	0.439900	0.256800	0.135500
H61	H6	0.289900	0.517800	0.290800
H71	H7	0.238200	0.260100	0.347900
H81	H8	0.429500	0.117700	0.199200
H91	H9	0.757700	0.277500	0.412200
H101	H10	0.705900	0.105100	0.346200
H111	H11	0.993200	0.014000	0.284900
H121	H12	0.042500	0.185700	0.340500
H131	H13	0.939900	0.743200	0.364500
H141	H14	0.789900	0.482200	0.209200
H151	H15	0.738200	0.739900	0.152100
H161	H16	0.929500	0.882300	0.300800
H171	H17	0.742300	0.277500	0.912200
H181	H18	0.794100	0.105100	0.846200
H191	H19	0.506800	0.014000	0.784900
H201	H20	0.457500	0.185700	0.840500
H211	H21	0.560100	0.743200	0.864500
H221	H22	0.710100	0.482200	0.709200
H231	H23	0.761800	0.739900	0.652100
H241	H24	0.570500	0.882300	0.800800
H251	H25	0.242300	0.722500	0.587800
H261	H26	0.294100	0.894900	0.653800
H271	H27	0.006800	0.986000	0.715100
H281	H28	0.957500	0.814300	0.659500
H291	H29	0.060100	0.256800	0.635500
H301	H30	0.210100	0.517800	0.790800
H311	H31	0.261800	0.260100	0.847900
H321	H32	0.070500	0.117700	0.699200
C11	C1	0.304700	0.775100	0.115200
C21	C2	0.273900	0.878600	0.153200
C31	C3	0.344000	0.955300	0.189400
C41	C4	0.445800	0.933400	0.191400
C51	C5	0.474800	0.830500	0.156900
C61	C6	0.304700	0.065600	0.225400
C71	C7	0.344500	0.241800	0.238300
C81	C8	0.393300	0.292500	0.185300
C91	C9	0.374800	0.395900	0.204500
C101	C10	0.303100	0.448700	0.277800
C111	C11	0.251900	0.399600	0.330800
C121	C12	0.272100	0.293900	0.312000
C131	C13	0.423700	0.443800	0.137300
C141	C14	0.167000	0.448100	0.402100
C151	C15	0.804700	0.224900	0.384800
C161	C16	0.773900	0.121400	0.346800
C171	C17	0.844000	0.044700	0.310600
C181	C18	0.945800	0.066600	0.308600
C191	C19	0.974800	0.169500	0.343100
C201	C20	0.804700	0.934400	0.274600
C211	C21	0.844500	0.758200	0.261700
C221	C22	0.893300	0.707500	0.314700
C231	C23	0.874800	0.604100	0.295500
C241	C24	0.803100	0.551300	0.222200
C251	C25	0.751900	0.600400	0.169200
C261	C26	0.772100	0.706100	0.188000
C271	C27	0.923700	0.556200	0.362700
C281	C28	0.667000	0.551900	0.097900
C291	C29	0.695300	0.224900	0.884800
C301	C30	0.726100	0.121400	0.846800
C311	C31	0.656000	0.044700	0.810600
C321	C32	0.554200	0.066600	0.808600
C331	C33	0.525200	0.169500	0.843100
C341	C34	0.695300	0.934400	0.774600
C351	C35	0.655500	0.758200	0.761700
C361	C36	0.606700	0.707500	0.814700
C371	C37	0.625200	0.604100	0.795500
C381	C38	0.696900	0.551300	0.722200
C391	C39	0.748100	0.600400	0.669200
C401	C40	0.727900	0.706100	0.688000
C411	C41	0.576300	0.556200	0.862700
C421	C42	0.833000	0.551900	0.597900
C431	C43	0.195300	0.775100	0.615200
C441	C44	0.226100	0.878600	0.653200
C451	C45	0.156000	0.955300	0.689400
C461	C46	0.054200	0.933400	0.691400
C471	C47	0.025200	0.830500	0.656900
C481	C48	0.195300	0.065600	0.725400
C491	C49	0.155500	0.241800	0.738300
C501	C50	0.106700	0.292500	0.685300
C511	C51	0.125200	0.395900	0.704500
C521	C52	0.196900	0.448700	0.777800
C531	C53	0.248100	0.399600	0.830800
C541	C54	0.227900	0.293900	0.812000
C551	C55	0.076300	0.443800	0.637300
C561	C56	0.333000	0.448100	0.902100
N11	N1	0.405900	0.751880	0.118830
N21	N2	0.368760	0.137130	0.217920
N31	N3	0.905900	0.248120	0.381170
N41	N4	0.868760	0.862870	0.282080
N51	N5	0.594100	0.248120	0.881170
N61	N6	0.631240	0.862870	0.782080
N71	N7	0.094100	0.751880	0.618830
N81	N8	0.131240	0.137130	0.717920
O11	O1	0.216720	0.082000	0.252480
O21	O2	0.486720	0.390670	0.076090
O31	O3	0.397240	0.534400	0.149200
O41	O4	0.176530	0.540680	0.461510
O51	O5	0.091740	0.394070	0.397680
O61	O6	0.716720	0.918000	0.247520
O71	O7	0.986720	0.609330	0.423910
O81	O8	0.897240	0.465600	0.350800
O91	O9	0.676530	0.459320	0.038490
O101	O10	0.591740	0.605930	0.102320
O111	O11	0.783280	0.918000	0.747520
O121	O12	0.513280	0.609330	0.923910
O131	O13	0.602760	0.465600	0.850800
O141	O14	0.823470	0.459320	0.538490
O151	O15	0.908260	0.605930	0.602320
O161	O16	0.283280	0.082000	0.752480
O171	O17	0.013280	0.390670	0.576090
O181	O18	0.102760	0.534400	0.649200
O191	O19	0.323470	0.540680	0.961510
O201	O20	0.408260	0.394070	0.897680
