data_UWODAN_clean_PM
_symmetry_space_group_name_H-M	'P1'
_cell_length_a	28.013400
_cell_length_b	17.891400
_cell_length_c	12.762900
_cell_angle_alpha	90.000000
_cell_angle_beta	90.000000
_cell_angle_gamma	90.000000
_symmetry_Int_Tables_number 1

loop_
_symmetry_equiv_pos_as_xyz
'x,y,z'

loop_
_atom_site_label
_atom_site_type_symbol
_atom_site_fract_x
_atom_site_fract_y
_atom_site_fract_z
C11	C1	0.956100	0.302700	0.260500
H11	H1	0.930900	0.314800	0.211300
H21	H2	0.962300	0.347000	0.302300
C21	C2	0.939100	0.240100	0.332300
H31	H3	0.972200	0.292700	0.056900
C31	C3	0.795300	0.012300	0.907100
H41	H4	0.778900	0.022500	0.845300
C41	C4	0.871900	0.012500	0.804900
C51	C5	0.844600	0.009500	0.907200
Mg11	Mg1	0.946000	0.057750	0.339510
Mg21	Mg2	0.877120	0.059140	0.581910
O11	O1	0.947410	0.173600	0.300400
O21	O2	0.916900	0.256500	0.413300
O31	O3	0.887110	0.055300	0.425100
O41	O4	0.045750	0.444900	0.116600
O51	O5	0.696340	0.047200	0.941800
O61	O6	0.904680	0.965600	0.793200
O71	O7	0.860180	0.062000	0.738800
Ni11	Ni1	0.946000	0.942250	0.660490
C61	C6	0.456100	0.802700	0.260500
H51	H5	0.430900	0.814800	0.211300
H61	H6	0.462300	0.847000	0.302300
C71	C7	0.439100	0.740100	0.332300
H71	H7	0.472200	0.792700	0.056900
C81	C8	0.295300	0.512300	0.907100
H81	H8	0.278900	0.522500	0.845300
C91	C9	0.371900	0.512500	0.804900
C101	C10	0.344600	0.509500	0.907200
Mg31	Mg3	0.446000	0.557750	0.339510
Mg41	Mg4	0.377120	0.559140	0.581910
O81	O8	0.447410	0.673600	0.300400
O91	O9	0.416900	0.756500	0.413300
O101	O10	0.387110	0.555300	0.425100
O111	O11	0.545750	0.944900	0.116600
O121	O12	0.196340	0.547200	0.941800
O131	O13	0.404680	0.465600	0.793200
O141	O14	0.360180	0.562000	0.738800
Ni21	Ni2	0.446000	0.442250	0.660490
C111	C11	0.043900	0.197300	0.760500
H91	H9	0.069100	0.185200	0.711300
H101	H10	0.037700	0.153000	0.802300
C121	C12	0.060900	0.259900	0.832300
H111	H11	0.027800	0.207300	0.556900
C131	C13	0.204700	0.487700	0.407100
H121	H12	0.221100	0.477500	0.345300
C141	C14	0.128100	0.487500	0.304900
C151	C15	0.155400	0.490500	0.407200
Mg51	Mg5	0.054000	0.442250	0.839510
Mg61	Mg6	0.122880	0.440860	0.081910
O151	O15	0.052590	0.326400	0.800400
O161	O16	0.083100	0.243500	0.913300
O171	O17	0.112890	0.444700	0.925100
O181	O18	0.954250	0.055100	0.616600
O191	O19	0.303660	0.452800	0.441800
O201	O20	0.095320	0.534400	0.293200
O211	O21	0.139820	0.438000	0.238800
Ni31	Ni3	0.054000	0.557750	0.160490
C161	C16	0.543900	0.697300	0.760500
H131	H13	0.569100	0.685200	0.711300
H141	H14	0.537700	0.653000	0.802300
C171	C17	0.560900	0.759900	0.832300
H151	H15	0.527800	0.707300	0.556900
C181	C18	0.704700	0.987700	0.407100
H161	H16	0.721100	0.977500	0.345300
C191	C19	0.628100	0.987500	0.304900
C201	C20	0.655400	0.990500	0.407200
Mg71	Mg7	0.554000	0.942250	0.839510
Mg81	Mg8	0.622880	0.940860	0.081910
O221	O22	0.552590	0.826400	0.800400
O231	O23	0.583100	0.743500	0.913300
O241	O24	0.612890	0.944700	0.925100
O251	O25	0.454250	0.555100	0.616600
O261	O26	0.803660	0.952800	0.441800
O271	O27	0.595320	0.034400	0.293200
O281	O28	0.639820	0.938000	0.238800
Ni41	Ni4	0.554000	0.057750	0.160490
C211	C21	0.043900	0.802700	0.239500
H171	H17	0.069100	0.814800	0.288700
H181	H18	0.037700	0.847000	0.197700
C221	C22	0.060900	0.740100	0.167700
H191	H19	0.027800	0.792700	0.443100
C231	C23	0.204700	0.512300	0.592900
H201	H20	0.221100	0.522500	0.654700
C241	C24	0.128100	0.512500	0.695100
C251	C25	0.155400	0.509500	0.592800
Mg91	Mg9	0.122880	0.559140	0.918090
O291	O29	0.052590	0.673600	0.199600
O301	O30	0.083100	0.756500	0.086700
O311	O31	0.112890	0.555300	0.074900
O321	O32	0.954250	0.944900	0.383400
O331	O33	0.303660	0.547200	0.558200
O341	O34	0.095320	0.465600	0.706800
O351	O35	0.139820	0.562000	0.761200
C261	C26	0.543900	0.302700	0.239500
H211	H21	0.569100	0.314800	0.288700
H221	H22	0.537700	0.347000	0.197700
C271	C27	0.560900	0.240100	0.167700
H231	H23	0.527800	0.292700	0.443100
C281	C28	0.704700	0.012300	0.592900
H241	H24	0.721100	0.022500	0.654700
C291	C29	0.628100	0.012500	0.695100
C301	C30	0.655400	0.009500	0.592800
Mg101	Mg10	0.622880	0.059140	0.918090
O361	O36	0.552590	0.173600	0.199600
O371	O37	0.583100	0.256500	0.086700
O381	O38	0.612890	0.055300	0.074900
O391	O39	0.454250	0.444900	0.383400
O401	O40	0.803660	0.047200	0.558200
O411	O41	0.595320	0.965600	0.706800
O421	O42	0.639820	0.062000	0.761200
C311	C31	0.956100	0.697300	0.739500
H251	H25	0.930900	0.685200	0.788700
H261	H26	0.962300	0.653000	0.697700
C321	C32	0.939100	0.759900	0.667700
H271	H27	0.972200	0.707300	0.943100
C331	C33	0.795300	0.987700	0.092900
H281	H28	0.778900	0.977500	0.154700
C341	C34	0.871900	0.987500	0.195100
C351	C35	0.844600	0.990500	0.092800
Mg111	Mg11	0.877120	0.940860	0.418090
O431	O43	0.947410	0.826400	0.699600
O441	O44	0.916900	0.743500	0.586700
O451	O45	0.887110	0.944700	0.574900
O461	O46	0.045750	0.555100	0.883400
O471	O47	0.696340	0.952800	0.058200
O481	O48	0.904680	0.034400	0.206800
O491	O49	0.860180	0.938000	0.261200
C361	C36	0.456100	0.197300	0.739500
H291	H29	0.430900	0.185200	0.788700
H301	H30	0.462300	0.153000	0.697700
C371	C37	0.439100	0.259900	0.667700
H311	H31	0.472200	0.207300	0.943100
C381	C38	0.295300	0.487700	0.092900
H321	H32	0.278900	0.477500	0.154700
C391	C39	0.371900	0.487500	0.195100
C401	C40	0.344600	0.490500	0.092800
Mg121	Mg12	0.377120	0.440860	0.418090
O501	O50	0.447410	0.326400	0.699600
O511	O51	0.416900	0.243500	0.586700
O521	O52	0.387110	0.444700	0.574900
O531	O53	0.545750	0.055100	0.883400
O541	O54	0.196340	0.452800	0.058200
O551	O55	0.404680	0.534400	0.206800
O561	O56	0.360180	0.438000	0.261200
C411	C41	0.043900	0.697300	0.739500
H331	H33	0.069100	0.685200	0.788700
H341	H34	0.037700	0.653000	0.697700
C421	C42	0.060900	0.759900	0.667700
H351	H35	0.027800	0.707300	0.943100
C431	C43	0.204700	0.987700	0.092900
H361	H36	0.221100	0.977500	0.154700
C441	C44	0.128100	0.987500	0.195100
C451	C45	0.155400	0.990500	0.092800
Mg131	Mg13	0.054000	0.942250	0.660490
Mg141	Mg14	0.122880	0.940860	0.418090
O571	O57	0.052590	0.826400	0.699600
O581	O58	0.083100	0.743500	0.586700
O591	O59	0.112890	0.944700	0.574900
O601	O60	0.954250	0.555100	0.883400
O611	O61	0.303660	0.952800	0.058200
O621	O62	0.095320	0.034400	0.206800
O631	O63	0.139820	0.938000	0.261200
Ni51	Ni5	0.054000	0.057750	0.339510
C461	C46	0.543900	0.197300	0.739500
H371	H37	0.569100	0.185200	0.788700
H381	H38	0.537700	0.153000	0.697700
C471	C47	0.560900	0.259900	0.667700
H391	H39	0.527800	0.207300	0.943100
C481	C48	0.704700	0.487700	0.092900
H401	H40	0.721100	0.477500	0.154700
C491	C49	0.628100	0.487500	0.195100
C501	C50	0.655400	0.490500	0.092800
Mg151	Mg15	0.554000	0.442250	0.660490
Mg161	Mg16	0.622880	0.440860	0.418090
O641	O64	0.552590	0.326400	0.699600
O651	O65	0.583100	0.243500	0.586700
O661	O66	0.612890	0.444700	0.574900
O671	O67	0.454250	0.055100	0.883400
O681	O68	0.803660	0.452800	0.058200
O691	O69	0.595320	0.534400	0.206800
O701	O70	0.639820	0.438000	0.261200
Ni61	Ni6	0.554000	0.557750	0.339510
C511	C51	0.956100	0.802700	0.239500
H411	H41	0.930900	0.814800	0.288700
H421	H42	0.962300	0.847000	0.197700
C521	C52	0.939100	0.740100	0.167700
H431	H43	0.972200	0.792700	0.443100
C531	C53	0.795300	0.512300	0.592900
H441	H44	0.778900	0.522500	0.654700
C541	C54	0.871900	0.512500	0.695100
C551	C55	0.844600	0.509500	0.592800
Mg171	Mg17	0.946000	0.557750	0.160490
Mg181	Mg18	0.877120	0.559140	0.918090
O711	O71	0.947410	0.673600	0.199600
O721	O72	0.916900	0.756500	0.086700
O731	O73	0.887110	0.555300	0.074900
O741	O74	0.045750	0.944900	0.383400
O751	O75	0.696340	0.547200	0.558200
O761	O76	0.904680	0.465600	0.706800
O771	O77	0.860180	0.562000	0.761200
Ni71	Ni7	0.946000	0.442250	0.839510
C561	C56	0.456100	0.302700	0.239500
H451	H45	0.430900	0.314800	0.288700
H461	H46	0.462300	0.347000	0.197700
C571	C57	0.439100	0.240100	0.167700
H471	H47	0.472200	0.292700	0.443100
C581	C58	0.295300	0.012300	0.592900
H481	H48	0.278900	0.022500	0.654700
C591	C59	0.371900	0.012500	0.695100
C601	C60	0.344600	0.009500	0.592800
Mg191	Mg19	0.446000	0.057750	0.160490
Mg201	Mg20	0.377120	0.059140	0.918090
O781	O78	0.447410	0.173600	0.199600
O791	O79	0.416900	0.256500	0.086700
O801	O80	0.387110	0.055300	0.074900
O811	O81	0.545750	0.444900	0.383400
O821	O82	0.196340	0.047200	0.558200
O831	O83	0.404680	0.965600	0.706800
O841	O84	0.360180	0.062000	0.761200
Ni81	Ni8	0.446000	0.942250	0.839510
C611	C61	0.956100	0.197300	0.760500
H491	H49	0.930900	0.185200	0.711300
H501	H50	0.962300	0.153000	0.802300
C621	C62	0.939100	0.259900	0.832300
H511	H51	0.972200	0.207300	0.556900
C631	C63	0.795300	0.487700	0.407100
H521	H52	0.778900	0.477500	0.345300
C641	C64	0.871900	0.487500	0.304900
C651	C65	0.844600	0.490500	0.407200
Mg211	Mg21	0.877120	0.440860	0.081910
O851	O85	0.947410	0.326400	0.800400
O861	O86	0.916900	0.243500	0.913300
O871	O87	0.887110	0.444700	0.925100
O881	O88	0.045750	0.055100	0.616600
O891	O89	0.696340	0.452800	0.441800
O901	O90	0.904680	0.534400	0.293200
O911	O91	0.860180	0.438000	0.238800
C661	C66	0.456100	0.697300	0.760500
H531	H53	0.430900	0.685200	0.711300
H541	H54	0.462300	0.653000	0.802300
C671	C67	0.439100	0.759900	0.832300
H551	H55	0.472200	0.707300	0.556900
C681	C68	0.295300	0.987700	0.407100
H561	H56	0.278900	0.977500	0.345300
C691	C69	0.371900	0.987500	0.304900
C701	C70	0.344600	0.990500	0.407200
Mg221	Mg22	0.377120	0.940860	0.081910
O921	O92	0.447410	0.826400	0.800400
O931	O93	0.416900	0.743500	0.913300
O941	O94	0.387110	0.944700	0.925100
O951	O95	0.545750	0.555100	0.616600
O961	O96	0.196340	0.952800	0.441800
O971	O97	0.404680	0.034400	0.293200
O981	O98	0.360180	0.938000	0.238800
C711	C71	0.043900	0.302700	0.260500
H571	H57	0.069100	0.314800	0.211300
H581	H58	0.037700	0.347000	0.302300
C721	C72	0.060900	0.240100	0.332300
H591	H59	0.027800	0.292700	0.056900
C731	C73	0.204700	0.012300	0.907100
H601	H60	0.221100	0.022500	0.845300
C741	C74	0.128100	0.012500	0.804900
C751	C75	0.155400	0.009500	0.907200
Mg231	Mg23	0.122880	0.059140	0.581910
O991	O99	0.052590	0.173600	0.300400
O1001	O100	0.083100	0.256500	0.413300
O1011	O101	0.112890	0.055300	0.425100
O1021	O102	0.954250	0.444900	0.116600
O1031	O103	0.303660	0.047200	0.941800
O1041	O104	0.095320	0.965600	0.793200
O1051	O105	0.139820	0.062000	0.738800
C761	C76	0.543900	0.802700	0.260500
H611	H61	0.569100	0.814800	0.211300
H621	H62	0.537700	0.847000	0.302300
C771	C77	0.560900	0.740100	0.332300
H631	H63	0.527800	0.792700	0.056900
C781	C78	0.704700	0.512300	0.907100
H641	H64	0.721100	0.522500	0.845300
C791	C79	0.628100	0.512500	0.804900
C801	C80	0.655400	0.509500	0.907200
Mg241	Mg24	0.622880	0.559140	0.581910
O1061	O106	0.552590	0.673600	0.300400
O1071	O107	0.583100	0.756500	0.413300
O1081	O108	0.612890	0.555300	0.425100
O1091	O109	0.454250	0.944900	0.116600
O1101	O110	0.803660	0.547200	0.941800
O1111	O111	0.595320	0.465600	0.793200
O1121	O112	0.639820	0.562000	0.738800
P11	P1	0.000000	0.413050	0.068980
N11	N1	0.000000	0.282800	0.201300
C811	C81	0.000000	0.313100	0.092100
Ni91	Ni9	0.000000	0.165080	0.188500
O1131	O113	0.000000	0.058300	0.236200
O1141	O114	0.000000	0.418400	0.949600
P21	P2	0.500000	0.913050	0.068980
N21	N2	0.500000	0.782800	0.201300
C821	C82	0.500000	0.813100	0.092100
Ni101	Ni10	0.500000	0.665080	0.188500
O1151	O115	0.500000	0.558300	0.236200
O1161	O116	0.500000	0.918400	0.949600
P31	P3	0.000000	0.086950	0.568980
N31	N3	0.000000	0.217200	0.701300
C831	C83	0.000000	0.186900	0.592100
Ni111	Ni11	0.000000	0.334920	0.688500
O1171	O117	0.000000	0.441700	0.736200
O1181	O118	0.000000	0.081600	0.449600
P41	P4	0.500000	0.586950	0.568980
N41	N4	0.500000	0.717200	0.701300
C841	C84	0.500000	0.686900	0.592100
Ni121	Ni12	0.500000	0.834920	0.688500
O1191	O119	0.500000	0.941700	0.736200
O1201	O120	0.500000	0.581600	0.449600
P51	P5	0.000000	0.913050	0.431020
N51	N5	0.000000	0.782800	0.298700
C851	C85	0.000000	0.813100	0.407900
Ni131	Ni13	0.000000	0.665080	0.311500
O1211	O121	0.000000	0.558300	0.263800
O1221	O122	0.000000	0.918400	0.550400
P61	P6	0.500000	0.413050	0.431020
N61	N6	0.500000	0.282800	0.298700
C861	C86	0.500000	0.313100	0.407900
Ni141	Ni14	0.500000	0.165080	0.311500
O1231	O123	0.500000	0.058300	0.263800
O1241	O124	0.500000	0.418400	0.550400
P71	P7	0.000000	0.586950	0.931020
N71	N7	0.000000	0.717200	0.798700
C871	C87	0.000000	0.686900	0.907900
Ni151	Ni15	0.000000	0.834920	0.811500
O1251	O125	0.000000	0.941700	0.763800
O1261	O126	0.000000	0.581600	0.050400
P81	P8	0.500000	0.086950	0.931020
N81	N8	0.500000	0.217200	0.798700
C881	C88	0.500000	0.186900	0.907900
Ni161	Ni16	0.500000	0.334920	0.811500
O1271	O127	0.500000	0.441700	0.763800
O1281	O128	0.500000	0.081600	0.050400
C891	C89	0.716700	0.000000	0.000000
C901	C90	0.770000	0.000000	0.000000
C911	C91	0.868800	0.000000	0.000000
H651	H65	0.902000	0.000000	0.000000
C921	C92	0.216700	0.500000	0.000000
C931	C93	0.270000	0.500000	0.000000
C941	C94	0.368800	0.500000	0.000000
H661	H66	0.402000	0.500000	0.000000
C951	C95	0.283300	0.500000	0.500000
C961	C96	0.230000	0.500000	0.500000
C971	C97	0.131200	0.500000	0.500000
H671	H67	0.098000	0.500000	0.500000
C981	C98	0.783300	0.000000	0.500000
C991	C99	0.730000	0.000000	0.500000
C1001	C100	0.631200	0.000000	0.500000
H681	H68	0.598000	0.000000	0.500000
C1011	C101	0.283300	0.000000	0.000000
C1021	C102	0.230000	0.000000	0.000000
C1031	C103	0.131200	0.000000	0.000000
H691	H69	0.098000	0.000000	0.000000
C1041	C104	0.783300	0.500000	0.000000
C1051	C105	0.730000	0.500000	0.000000
C1061	C106	0.631200	0.500000	0.000000
H701	H70	0.598000	0.500000	0.000000
C1071	C107	0.716700	0.500000	0.500000
C1081	C108	0.770000	0.500000	0.500000
C1091	C109	0.868800	0.500000	0.500000
H711	H71	0.902000	0.500000	0.500000
C1101	C110	0.216700	0.000000	0.500000
C1111	C111	0.270000	0.000000	0.500000
C1121	C112	0.368800	0.000000	0.500000
H721	H72	0.402000	0.000000	0.500000
