data_UWUTIQ_clean_PM
_symmetry_space_group_name_H-M	'P1'
_cell_length_a	10.896000
_cell_length_b	19.698000
_cell_length_c	21.554000
_cell_angle_alpha	90.000000
_cell_angle_beta	100.480000
_cell_angle_gamma	90.000000
_symmetry_Int_Tables_number 1

loop_
_symmetry_equiv_pos_as_xyz
'x,y,z'

loop_
_atom_site_label
_atom_site_type_symbol
_atom_site_fract_x
_atom_site_fract_y
_atom_site_fract_z
Zn11	Zn1	0.645120	0.050680	0.634650
Zn21	Zn2	0.684600	0.947720	0.734910
Zn31	Zn3	0.645120	0.449320	0.134650
Zn41	Zn4	0.684600	0.552280	0.234910
H11	H1	0.636200	0.912700	0.484800
H21	H2	0.688600	0.763700	0.613900
H31	H3	0.638400	0.834000	0.405700
H41	H4	0.091800	0.921700	0.751900
H51	H5	0.300300	0.921200	0.742500
H61	H6	0.660100	0.302300	0.111900
H71	H7	0.765600	0.093400	0.886500
H81	H8	0.661400	0.382200	0.913100
H91	H9	0.594600	0.227300	0.759400
H101	H10	0.666600	0.226000	0.033100
H111	H11	0.697500	0.684800	0.535000
H121	H12	0.027000	0.074700	0.627100
H131	H13	0.586700	0.304400	0.839700
H141	H14	0.233900	0.072100	0.615600
H151	H15	0.798400	0.636700	0.456900
H161	H16	0.650800	0.454600	0.995100
H171	H17	0.761200	0.171700	0.965100
H181	H18	0.805700	0.566500	0.371800
H191	H19	0.551400	0.673200	0.265300
H201	H20	0.539600	0.745900	0.346300
H211	H21	0.636200	0.587300	0.984800
H221	H22	0.688600	0.736300	0.113900
H231	H23	0.638400	0.666000	0.905700
H241	H24	0.091800	0.578300	0.251900
H251	H25	0.300300	0.578800	0.242500
H261	H26	0.660100	0.197700	0.611900
H271	H27	0.765600	0.406600	0.386500
H281	H28	0.661400	0.117800	0.413100
H291	H29	0.594600	0.272700	0.259400
H301	H30	0.666600	0.274000	0.533100
H311	H31	0.697500	0.815200	0.035000
H321	H32	0.027000	0.425300	0.127100
H331	H33	0.586700	0.195600	0.339700
H341	H34	0.233900	0.427900	0.115600
H351	H35	0.798400	0.863300	0.956900
H361	H36	0.650800	0.045400	0.495100
H371	H37	0.761200	0.328300	0.465100
H381	H38	0.805700	0.933500	0.871800
H391	H39	0.551400	0.826800	0.765300
H401	H40	0.539600	0.754100	0.846300
C11	C1	0.663100	0.846800	0.557100
C21	C2	0.669800	0.751200	0.462060
C31	C3	0.673500	0.701700	0.409990
C41	C4	0.673500	0.151100	0.814240
C51	C5	0.038200	0.998100	0.690300
C61	C6	0.648000	0.867000	0.494960
C71	C7	0.425200	0.998400	0.674710
C81	C8	0.658400	0.898600	0.607910
C91	C9	0.680200	0.777800	0.572100
C101	C10	0.669000	0.245600	0.911300
C111	C11	0.665100	0.294800	0.962800
C121	C12	0.650100	0.819800	0.447540
C131	C13	0.672300	0.098300	0.762960
C141	C14	0.120500	0.952200	0.724900
C151	C15	0.245400	0.951900	0.719200
C161	C16	0.288500	0.997200	0.678800
C171	C17	0.902100	0.998000	0.694900
C181	C18	0.659500	0.318400	0.071300
C191	C19	0.727800	0.135400	0.876800
C201	C20	0.660500	0.364700	0.953100
C211	C21	0.625200	0.215000	0.801000
C221	C22	0.664100	0.272200	0.024200
C231	C23	0.684600	0.730400	0.524800
C241	C24	0.081500	0.043600	0.649900
C251	C25	0.621600	0.261700	0.849400
C261	C26	0.205700	0.042500	0.643500
C271	C27	0.749400	0.646100	0.417800
C281	C28	0.654600	0.408100	0.002780
C291	C29	0.724800	0.182500	0.923800
C301	C30	0.752100	0.603700	0.366400
C311	C31	0.603600	0.666200	0.304000
C321	C32	0.596400	0.710200	0.352400
C331	C33	0.663100	0.653200	0.057100
C341	C34	0.669800	0.748800	0.962060
C351	C35	0.673500	0.798300	0.909990
C361	C36	0.673500	0.348900	0.314240
C371	C37	0.038200	0.501900	0.190300
C381	C38	0.648000	0.633000	0.994960
C391	C39	0.425200	0.501600	0.174710
C401	C40	0.658400	0.601400	0.107910
C411	C41	0.680200	0.722200	0.072100
C421	C42	0.669000	0.254400	0.411300
C431	C43	0.665100	0.205200	0.462800
C441	C44	0.650100	0.680200	0.947540
C451	C45	0.672300	0.401700	0.262960
C461	C46	0.120500	0.547800	0.224900
C471	C47	0.245400	0.548100	0.219200
C481	C48	0.288500	0.502800	0.178800
C491	C49	0.902100	0.502000	0.194900
C501	C50	0.659500	0.181600	0.571300
C511	C51	0.727800	0.364600	0.376800
C521	C52	0.660500	0.135300	0.453100
C531	C53	0.625200	0.285000	0.301000
C541	C54	0.664100	0.227800	0.524200
C551	C55	0.684600	0.769600	0.024800
C561	C56	0.081500	0.456400	0.149900
C571	C57	0.621600	0.238300	0.349400
C581	C58	0.205700	0.457500	0.143500
C591	C59	0.749400	0.853900	0.917800
C601	C60	0.654600	0.091900	0.502780
C611	C61	0.724800	0.317500	0.423800
C621	C62	0.752100	0.896300	0.866400
C631	C63	0.603600	0.833800	0.804000
C641	C64	0.596400	0.789800	0.852400
N11	N1	0.654200	0.386030	0.061600
N21	N2	0.682100	0.613700	0.309950
N31	N3	0.654200	0.113970	0.561600
N41	N4	0.682100	0.886300	0.809950
O11	O1	0.641100	0.117170	0.707030
O21	O2	0.459200	0.034750	0.632880
O31	O3	0.661400	0.878040	0.663270
O41	O4	0.835100	0.042500	0.664400
O51	O5	0.865500	0.952120	0.728190
O61	O6	0.497300	0.963300	0.714620
O71	O7	0.653000	0.959350	0.591020
O81	O8	0.701800	0.038930	0.781360
O91	O9	0.641100	0.382830	0.207030
O101	O10	0.459200	0.465250	0.132880
O111	O11	0.661400	0.621960	0.163270
O121	O12	0.835100	0.457500	0.164400
O131	O13	0.865500	0.547880	0.228190
O141	O14	0.497300	0.536700	0.214620
O151	O15	0.653000	0.540650	0.091020
O161	O16	0.701800	0.461070	0.281360
Zn51	Zn5	0.354880	0.550680	0.865350
Zn61	Zn6	0.315400	0.447720	0.765090
Zn71	Zn7	0.354880	0.949320	0.365350
Zn81	Zn8	0.315400	0.052280	0.265090
H411	H41	0.363800	0.412700	0.015200
H421	H42	0.311400	0.263700	0.886100
H431	H43	0.361600	0.334000	0.094300
H441	H44	0.908200	0.421700	0.748100
H451	H45	0.699700	0.421200	0.757500
H461	H46	0.339900	0.802300	0.388100
H471	H47	0.234400	0.593400	0.613500
H481	H48	0.338600	0.882200	0.586900
H491	H49	0.405400	0.727300	0.740600
H501	H50	0.333400	0.726000	0.466900
H511	H51	0.302500	0.184800	0.965000
H521	H52	0.973000	0.574700	0.872900
H531	H53	0.413300	0.804400	0.660300
H541	H54	0.766100	0.572100	0.884400
H551	H55	0.201600	0.136700	0.043100
H561	H56	0.349200	0.954600	0.504900
H571	H57	0.238800	0.671700	0.534900
H581	H58	0.194300	0.066500	0.128200
H591	H59	0.448600	0.173200	0.234700
H601	H60	0.460400	0.245900	0.153700
H611	H61	0.363800	0.087300	0.515200
H621	H62	0.311400	0.236300	0.386100
H631	H63	0.361600	0.166000	0.594300
H641	H64	0.908200	0.078300	0.248100
H651	H65	0.699700	0.078800	0.257500
H661	H66	0.339900	0.697700	0.888100
H671	H67	0.234400	0.906600	0.113500
H681	H68	0.338600	0.617800	0.086900
H691	H69	0.405400	0.772700	0.240600
H701	H70	0.333400	0.774000	0.966900
H711	H71	0.302500	0.315200	0.465000
H721	H72	0.973000	0.925300	0.372900
H731	H73	0.413300	0.695600	0.160300
H741	H74	0.766100	0.927900	0.384400
H751	H75	0.201600	0.363300	0.543100
H761	H76	0.349200	0.545400	0.004900
H771	H77	0.238800	0.828300	0.034900
H781	H78	0.194300	0.433500	0.628200
H791	H79	0.448600	0.326800	0.734700
H801	H80	0.460400	0.254100	0.653700
C651	C65	0.336900	0.346800	0.942900
C661	C66	0.330200	0.251200	0.037940
C671	C67	0.326500	0.201700	0.090010
C681	C68	0.326500	0.651100	0.685760
C691	C69	0.961800	0.498100	0.809700
C701	C70	0.352000	0.367000	0.005040
C711	C71	0.574800	0.498400	0.825290
C721	C72	0.341600	0.398600	0.892090
C731	C73	0.319800	0.277800	0.927900
C741	C74	0.331000	0.745600	0.588700
C751	C75	0.334900	0.794800	0.537200
C761	C76	0.349900	0.319800	0.052460
C771	C77	0.327700	0.598300	0.737040
C781	C78	0.879500	0.452200	0.775100
C791	C79	0.754600	0.451900	0.780800
C801	C80	0.711500	0.497200	0.821200
C811	C81	0.097900	0.498000	0.805100
C821	C82	0.340500	0.818400	0.428700
C831	C83	0.272200	0.635400	0.623200
C841	C84	0.339500	0.864700	0.546900
C851	C85	0.374800	0.715000	0.699000
C861	C86	0.335900	0.772200	0.475800
C871	C87	0.315400	0.230400	0.975200
C881	C88	0.918500	0.543600	0.850100
C891	C89	0.378400	0.761700	0.650600
C901	C90	0.794300	0.542500	0.856500
C911	C91	0.250600	0.146100	0.082200
C921	C92	0.345400	0.908100	0.497220
C931	C93	0.275200	0.682500	0.576200
C941	C94	0.247900	0.103700	0.133600
C951	C95	0.396400	0.166200	0.196000
C961	C96	0.403600	0.210200	0.147600
C971	C97	0.336900	0.153200	0.442900
C981	C98	0.330200	0.248800	0.537940
C991	C99	0.326500	0.298300	0.590010
C1001	C100	0.326500	0.848900	0.185760
C1011	C101	0.961800	0.001900	0.309700
C1021	C102	0.352000	0.133000	0.505040
C1031	C103	0.574800	0.001600	0.325290
C1041	C104	0.341600	0.101400	0.392090
C1051	C105	0.319800	0.222200	0.427900
C1061	C106	0.331000	0.754400	0.088700
C1071	C107	0.334900	0.705200	0.037200
C1081	C108	0.349900	0.180200	0.552460
C1091	C109	0.327700	0.901700	0.237040
C1101	C110	0.879500	0.047800	0.275100
C1111	C111	0.754600	0.048100	0.280800
C1121	C112	0.711500	0.002800	0.321200
C1131	C113	0.097900	0.002000	0.305100
C1141	C114	0.340500	0.681600	0.928700
C1151	C115	0.272200	0.864600	0.123200
C1161	C116	0.339500	0.635300	0.046900
C1171	C117	0.374800	0.785000	0.199000
C1181	C118	0.335900	0.727800	0.975800
C1191	C119	0.315400	0.269600	0.475200
C1201	C120	0.918500	0.956400	0.350100
C1211	C121	0.378400	0.738300	0.150600
C1221	C122	0.794300	0.957500	0.356500
C1231	C123	0.250600	0.353900	0.582200
C1241	C124	0.345400	0.591900	0.997220
C1251	C125	0.275200	0.817500	0.076200
C1261	C126	0.247900	0.396300	0.633600
C1271	C127	0.396400	0.333800	0.696000
C1281	C128	0.403600	0.289800	0.647600
N51	N5	0.345800	0.886030	0.438400
N61	N6	0.317900	0.113700	0.190050
N71	N7	0.345800	0.613970	0.938400
N81	N8	0.317900	0.386300	0.690050
O171	O17	0.358900	0.617170	0.792970
O181	O18	0.540800	0.534750	0.867120
O191	O19	0.338600	0.378040	0.836730
O201	O20	0.164900	0.542500	0.835600
O211	O21	0.134500	0.452120	0.771810
O221	O22	0.502700	0.463300	0.785380
O231	O23	0.347000	0.459350	0.908980
O241	O24	0.298200	0.538930	0.718640
O251	O25	0.358900	0.882830	0.292970
O261	O26	0.540800	0.965250	0.367120
O271	O27	0.338600	0.121960	0.336730
O281	O28	0.164900	0.957500	0.335600
O291	O29	0.134500	0.047880	0.271810
O301	O30	0.502700	0.036700	0.285380
O311	O31	0.347000	0.040650	0.408980
O321	O32	0.298200	0.961070	0.218640
