data_UXEDIL_clean_PM
_symmetry_space_group_name_H-M	'P1'
_cell_length_a	6.655200
_cell_length_b	18.354900
_cell_length_c	8.434600
_cell_angle_alpha	90.000000
_cell_angle_beta	90.000000
_cell_angle_gamma	90.000000
_symmetry_Int_Tables_number 1

loop_
_symmetry_equiv_pos_as_xyz
'x,y,z'

loop_
_atom_site_label
_atom_site_type_symbol
_atom_site_fract_x
_atom_site_fract_y
_atom_site_fract_z
O11	O1	0.320700	0.258080	0.847100
O21	O2	0.174300	0.183750	0.018900
O31	O3	0.165600	0.405400	0.768700
O41	O4	0.488900	0.450120	0.570300
C11	C1	0.237100	0.243900	0.975300
H11	H1	0.220000	0.282500	0.045500
O51	O5	0.820700	0.758080	0.847100
O61	O6	0.674300	0.683750	0.018900
O71	O7	0.665600	0.905400	0.768700
O81	O8	0.988900	0.950120	0.570300
C21	C2	0.737100	0.743900	0.975300
H21	H2	0.720000	0.782500	0.045500
O91	O9	0.679300	0.741920	0.347100
O101	O10	0.825700	0.816250	0.518900
O111	O11	0.834400	0.594600	0.268700
O121	O12	0.511100	0.549880	0.070300
C31	C3	0.762900	0.756100	0.475300
H31	H3	0.780000	0.717500	0.545500
O131	O13	0.179300	0.241920	0.347100
O141	O14	0.325700	0.316250	0.518900
O151	O15	0.334400	0.094600	0.268700
O161	O16	0.011100	0.049880	0.070300
C41	C4	0.262900	0.256100	0.475300
H41	H4	0.280000	0.217500	0.545500
O171	O17	0.679300	0.258080	0.652900
O181	O18	0.825700	0.183750	0.481100
O191	O19	0.834400	0.405400	0.731300
O201	O20	0.511100	0.450120	0.929700
C51	C5	0.762900	0.243900	0.524700
H51	H5	0.780000	0.282500	0.454500
O211	O21	0.179300	0.758080	0.652900
O221	O22	0.325700	0.683750	0.481100
O231	O23	0.334400	0.905400	0.731300
O241	O24	0.011100	0.950120	0.929700
C61	C6	0.262900	0.743900	0.524700
H61	H6	0.280000	0.782500	0.454500
O251	O25	0.320700	0.741920	0.152900
O261	O26	0.174300	0.816250	0.981100
O271	O27	0.165600	0.594600	0.231300
O281	O28	0.488900	0.549880	0.429700
C71	C7	0.237100	0.756100	0.024700
H71	H7	0.220000	0.717500	0.954500
O291	O29	0.820700	0.241920	0.152900
O301	O30	0.674300	0.316250	0.981100
O311	O31	0.665600	0.094600	0.231300
O321	O32	0.988900	0.049880	0.429700
C81	C8	0.737100	0.256100	0.024700
H81	H8	0.720000	0.217500	0.954500
Er11	Er1	0.500000	0.357290	0.750000
Er21	Er2	0.000000	0.857290	0.750000
Er31	Er3	0.500000	0.642710	0.250000
Er41	Er4	0.000000	0.142710	0.250000
C91	C9	0.000000	0.374300	0.750000
H91	H9	0.000000	0.323600	0.750000
C101	C10	0.500000	0.874300	0.750000
H101	H10	0.500000	0.823600	0.750000
C111	C11	0.000000	0.625700	0.250000
H111	H11	0.000000	0.676400	0.250000
C121	C12	0.500000	0.125700	0.250000
H121	H12	0.500000	0.176400	0.250000
C131	C13	0.574100	0.500000	0.500000
H131	H13	0.713800	0.500000	0.500000
C141	C14	0.074100	0.000000	0.500000
H141	H14	0.213800	0.000000	0.500000
C151	C15	0.425900	0.500000	0.000000
H151	H15	0.286200	0.500000	0.000000
C161	C16	0.925900	0.000000	0.000000
H161	H16	0.786200	0.000000	0.000000
