data_UXEDIL01_clean_PM
_symmetry_space_group_name_H-M	'P1'
_cell_length_a	6.653900
_cell_length_b	18.360600
_cell_length_c	8.433000
_cell_angle_alpha	90.000000
_cell_angle_beta	90.000000
_cell_angle_gamma	90.000000
_symmetry_Int_Tables_number 1

loop_
_symmetry_equiv_pos_as_xyz
'x,y,z'

loop_
_atom_site_label
_atom_site_type_symbol
_atom_site_fract_x
_atom_site_fract_y
_atom_site_fract_z
O11	O1	0.011900	0.450090	0.069600
O21	O2	0.335400	0.405740	0.270900
O31	O3	0.325400	0.183430	0.518600
O41	O4	0.179700	0.258200	0.347000
C11	C1	0.264000	0.243500	0.475500
H11	H1	0.282200	0.281900	0.545900
O51	O5	0.511900	0.950090	0.069600
O61	O6	0.835400	0.905740	0.270900
O71	O7	0.825400	0.683430	0.518600
O81	O8	0.679700	0.758200	0.347000
C21	C2	0.764000	0.743500	0.475500
H21	H2	0.782200	0.781900	0.545900
O91	O9	0.988100	0.549910	0.569600
O101	O10	0.664600	0.594260	0.770900
O111	O11	0.674600	0.816570	0.018600
O121	O12	0.820300	0.741800	0.847000
C31	C3	0.736000	0.756500	0.975500
H31	H3	0.717800	0.718100	0.045900
O131	O13	0.488100	0.049910	0.569600
O141	O14	0.164600	0.094260	0.770900
O151	O15	0.174600	0.316570	0.018600
O161	O16	0.320300	0.241800	0.847000
C41	C4	0.236000	0.256500	0.975500
H41	H4	0.217800	0.218100	0.045900
O171	O17	0.988100	0.450090	0.430400
O181	O18	0.664600	0.405740	0.229100
O191	O19	0.674600	0.183430	0.981400
O201	O20	0.820300	0.258200	0.153000
C51	C5	0.736000	0.243500	0.024500
H51	H5	0.717800	0.281900	0.954100
O211	O21	0.488100	0.950090	0.430400
O221	O22	0.164600	0.905740	0.229100
O231	O23	0.174600	0.683430	0.981400
O241	O24	0.320300	0.758200	0.153000
C61	C6	0.236000	0.743500	0.024500
H61	H6	0.217800	0.781900	0.954100
O251	O25	0.011900	0.549910	0.930400
O261	O26	0.335400	0.594260	0.729100
O271	O27	0.325400	0.816570	0.481400
O281	O28	0.179700	0.741800	0.653000
C71	C7	0.264000	0.756500	0.524500
H71	H7	0.282200	0.718100	0.454100
O291	O29	0.511900	0.049910	0.930400
O301	O30	0.835400	0.094260	0.729100
O311	O31	0.825400	0.316570	0.481400
O321	O32	0.679700	0.241800	0.653000
C81	C8	0.764000	0.256500	0.524500
H81	H8	0.782200	0.218100	0.454100
Er11	Er1	0.000000	0.357270	0.250000
Er21	Er2	0.500000	0.857270	0.250000
Er31	Er3	0.000000	0.642730	0.750000
Er41	Er4	0.500000	0.142730	0.750000
C91	C9	0.925700	0.500000	0.000000
H91	H9	0.786000	0.500000	0.000000
C101	C10	0.425700	0.000000	0.000000
H101	H10	0.286000	0.000000	0.000000
C111	C11	0.074300	0.500000	0.500000
H111	H11	0.214000	0.500000	0.500000
C121	C12	0.574300	0.000000	0.500000
H121	H12	0.714000	0.000000	0.500000
C131	C13	0.500000	0.374200	0.250000
H131	H13	0.500000	0.323600	0.250000
C141	C14	0.000000	0.874200	0.250000
H141	H14	0.000000	0.823600	0.250000
C151	C15	0.500000	0.625800	0.750000
H151	H15	0.500000	0.676400	0.750000
C161	C16	0.000000	0.125800	0.750000
H161	H16	0.000000	0.176400	0.750000
