data_UXEDIL02_clean_PM
_symmetry_space_group_name_H-M	'P1'
_cell_length_a	6.631800
_cell_length_b	18.371900
_cell_length_c	8.412600
_cell_angle_alpha	90.000000
_cell_angle_beta	90.000000
_cell_angle_gamma	90.000000
_symmetry_Int_Tables_number 1

loop_
_symmetry_equiv_pos_as_xyz
'x,y,z'

loop_
_atom_site_label
_atom_site_type_symbol
_atom_site_fract_x
_atom_site_fract_y
_atom_site_fract_z
O11	O1	0.985600	0.050100	0.430100
O21	O2	0.665400	0.095100	0.227100
O31	O3	0.320200	0.257100	0.845300
C11	C1	0.234400	0.243600	0.974700
H11	H1	0.213200	0.283000	0.045900
O41	O4	0.175300	0.182600	0.016600
O51	O5	0.485600	0.550100	0.430100
O61	O6	0.165400	0.595100	0.227100
O71	O7	0.820200	0.757100	0.845300
C21	C2	0.734400	0.743600	0.974700
H21	H2	0.713200	0.783000	0.045900
O81	O8	0.675300	0.682600	0.016600
O91	O9	0.014400	0.949900	0.930100
O101	O10	0.334600	0.904900	0.727100
O111	O11	0.679800	0.742900	0.345300
C31	C3	0.765600	0.756400	0.474700
H31	H3	0.786800	0.717000	0.545900
O121	O12	0.824700	0.817400	0.516600
O131	O13	0.514400	0.449900	0.930100
O141	O14	0.834600	0.404900	0.727100
O151	O15	0.179800	0.242900	0.345300
C41	C4	0.265600	0.256400	0.474700
H41	H4	0.286800	0.217000	0.545900
O161	O16	0.324700	0.317400	0.516600
O171	O17	0.014400	0.050100	0.069900
O181	O18	0.334600	0.095100	0.272900
O191	O19	0.679800	0.257100	0.654700
C51	C5	0.765600	0.243600	0.525300
H51	H5	0.786800	0.283000	0.454100
O201	O20	0.824700	0.182600	0.483400
O211	O21	0.514400	0.550100	0.069900
O221	O22	0.834600	0.595100	0.272900
O231	O23	0.179800	0.757100	0.654700
C61	C6	0.265600	0.743600	0.525300
H61	H6	0.286800	0.783000	0.454100
O241	O24	0.324700	0.682600	0.483400
O251	O25	0.985600	0.949900	0.569900
O261	O26	0.665400	0.904900	0.772900
O271	O27	0.320200	0.742900	0.154700
C71	C7	0.234400	0.756400	0.025300
H71	H7	0.213200	0.717000	0.954100
O281	O28	0.175300	0.817400	0.983400
O291	O29	0.485600	0.449900	0.569900
O301	O30	0.165400	0.404900	0.772900
O311	O31	0.820200	0.242900	0.154700
C81	C8	0.734400	0.256400	0.025300
H81	H8	0.713200	0.217000	0.954100
O321	O32	0.675300	0.317400	0.983400
Er11	Er1	0.000000	0.142930	0.250000
Er21	Er2	0.500000	0.642930	0.250000
Er31	Er3	0.000000	0.857070	0.750000
Er41	Er4	0.500000	0.357070	0.750000
C91	C9	0.075600	0.000000	0.500000
H91	H9	0.218800	0.000000	0.500000
C101	C10	0.575600	0.500000	0.500000
H101	H10	0.718800	0.500000	0.500000
C111	C11	0.924400	0.000000	0.000000
H111	H11	0.781200	0.000000	0.000000
C121	C12	0.424400	0.500000	0.000000
H121	H12	0.281200	0.500000	0.000000
C131	C13	0.500000	0.126600	0.250000
H131	H13	0.500000	0.178300	0.250000
C141	C14	0.000000	0.626600	0.250000
H141	H14	0.000000	0.678300	0.250000
C151	C15	0.500000	0.873400	0.750000
H151	H15	0.500000	0.821700	0.750000
C161	C16	0.000000	0.373400	0.750000
H161	H16	0.000000	0.321700	0.750000
