data_UXEQOE_clean_PM
_symmetry_space_group_name_H-M	'P1'
_cell_length_a	14.143000
_cell_length_b	15.717800
_cell_length_c	16.088900
_cell_angle_alpha	90.000000
_cell_angle_beta	90.000000
_cell_angle_gamma	90.000000
_symmetry_Int_Tables_number 1

loop_
_symmetry_equiv_pos_as_xyz
'x,y,z'

loop_
_atom_site_label
_atom_site_type_symbol
_atom_site_fract_x
_atom_site_fract_y
_atom_site_fract_z
Cd11	Cd1	0.354620	0.070330	0.221310
Cd21	Cd2	0.120150	0.986520	0.311010
Cd31	Cd3	0.145380	0.929670	0.721310
Cd41	Cd4	0.379850	0.013480	0.811010
Cd51	Cd5	0.645380	0.570330	0.278690
Cd61	Cd6	0.879850	0.486520	0.188990
Cd71	Cd7	0.854620	0.429670	0.778690
Cd81	Cd8	0.620150	0.513480	0.688990
Cd91	Cd9	0.645380	0.929670	0.778690
Cd101	Cd10	0.879850	0.013480	0.688990
Cd111	Cd11	0.854620	0.070330	0.278690
Cd121	Cd12	0.620150	0.986520	0.188990
Cd131	Cd13	0.354620	0.429670	0.721310
Cd141	Cd14	0.120150	0.513480	0.811010
Cd151	Cd15	0.145380	0.570330	0.221310
Cd161	Cd16	0.379850	0.486520	0.311010
Cd171	Cd17	0.000000	0.000000	0.000000
Cd181	Cd18	0.500000	0.000000	0.500000
Cd191	Cd19	0.000000	0.500000	0.500000
Cd201	Cd20	0.500000	0.500000	0.000000
H11	H1	0.449400	0.073300	0.018800
H21	H2	0.282700	0.270600	0.297900
H31	H3	0.624000	0.316400	0.177000
H41	H4	0.050600	0.926700	0.518800
H51	H5	0.217300	0.729400	0.797900
H61	H6	0.876000	0.683600	0.677000
H71	H7	0.550600	0.573300	0.481200
H81	H8	0.717300	0.770600	0.202100
H91	H9	0.376000	0.816400	0.323000
H101	H10	0.949400	0.426700	0.981200
H111	H11	0.782700	0.229400	0.702100
H121	H12	0.124000	0.183600	0.823000
H131	H13	0.550600	0.926700	0.981200
H141	H14	0.717300	0.729400	0.702100
H151	H15	0.376000	0.683600	0.823000
H161	H16	0.949400	0.073300	0.481200
H171	H17	0.782700	0.270600	0.202100
H181	H18	0.124000	0.316400	0.323000
H191	H19	0.449400	0.426700	0.518800
H201	H20	0.282700	0.229400	0.797900
H211	H21	0.624000	0.183600	0.677000
H221	H22	0.050600	0.573300	0.018800
H231	H23	0.217300	0.770600	0.297900
H241	H24	0.876000	0.816400	0.177000
C11	C1	0.174800	0.996900	0.119800
C21	C2	0.247200	0.010800	0.057800
C31	C3	0.388200	0.051600	0.017500
C41	C4	0.256400	0.997900	0.973900
C51	C5	0.194000	0.963600	0.907500
C61	C6	0.343500	0.274100	0.276300
C71	C7	0.474400	0.239900	0.217900
C81	C8	0.554000	0.387500	0.232300
C91	C9	0.478100	0.325300	0.239500
C101	C10	0.546400	0.183400	0.180200
C111	C11	0.325200	0.003100	0.619800
C121	C12	0.252800	0.989200	0.557800
C131	C13	0.111800	0.948400	0.517500
C141	C14	0.243600	0.002100	0.473900
C151	C15	0.306000	0.036400	0.407500
C161	C16	0.156500	0.725900	0.776300
C171	C17	0.025600	0.760100	0.717900
C181	C18	0.946000	0.612500	0.732300
C191	C19	0.021900	0.674700	0.739500
C201	C20	0.953600	0.816600	0.680200
C211	C21	0.825200	0.496900	0.380200
C221	C22	0.752800	0.510800	0.442200
C231	C23	0.611800	0.551600	0.482500
C241	C24	0.743600	0.497900	0.526100
C251	C25	0.806000	0.463600	0.592500
C261	C26	0.656500	0.774100	0.223700
C271	C27	0.525600	0.739900	0.282100
C281	C28	0.446000	0.887500	0.267700
C291	C29	0.521900	0.825300	0.260500
C301	C30	0.453600	0.683400	0.319800
C311	C31	0.674800	0.503100	0.880200
C321	C32	0.747200	0.489200	0.942200
C331	C33	0.888200	0.448400	0.982500
C341	C34	0.756400	0.502100	0.026100
C351	C35	0.694000	0.536400	0.092500
C361	C36	0.843500	0.225900	0.723700
C371	C37	0.974400	0.260100	0.782100
C381	C38	0.054000	0.112500	0.767700
C391	C39	0.978100	0.174700	0.760500
C401	C40	0.046400	0.316600	0.819800
C411	C41	0.825200	0.003100	0.880200
C421	C42	0.752800	0.989200	0.942200
C431	C43	0.611800	0.948400	0.982500
C441	C44	0.743600	0.002100	0.026100
C451	C45	0.806000	0.036400	0.092500
C461	C46	0.656500	0.725900	0.723700
C471	C47	0.525600	0.760100	0.782100
C481	C48	0.446000	0.612500	0.767700
C491	C49	0.521900	0.674700	0.760500
C501	C50	0.453600	0.816600	0.819800
C511	C51	0.674800	0.996900	0.380200
C521	C52	0.747200	0.010800	0.442200
C531	C53	0.888200	0.051600	0.482500
C541	C54	0.756400	0.997900	0.526100
C551	C55	0.694000	0.963600	0.592500
C561	C56	0.843500	0.274100	0.223700
C571	C57	0.974400	0.239900	0.282100
C581	C58	0.054000	0.387500	0.267700
C591	C59	0.978100	0.325300	0.260500
C601	C60	0.046400	0.183400	0.319800
C611	C61	0.174800	0.503100	0.619800
C621	C62	0.247200	0.489200	0.557800
C631	C63	0.388200	0.448400	0.517500
C641	C64	0.256400	0.502100	0.473900
C651	C65	0.194000	0.536400	0.407500
C661	C66	0.343500	0.225900	0.776300
C671	C67	0.474400	0.260100	0.717900
C681	C68	0.554000	0.112500	0.732300
C691	C69	0.478100	0.174700	0.739500
C701	C70	0.546400	0.316600	0.680200
C711	C71	0.325200	0.496900	0.119800
C721	C72	0.252800	0.510800	0.057800
C731	C73	0.111800	0.551600	0.017500
C741	C74	0.243600	0.497900	0.973900
C751	C75	0.306000	0.463600	0.907500
C761	C76	0.156500	0.774100	0.276300
C771	C77	0.025600	0.739900	0.217900
C781	C78	0.946000	0.887500	0.232300
C791	C79	0.021900	0.825300	0.239500
C801	C80	0.953600	0.683400	0.180200
N11	N1	0.333000	0.045200	0.085500
N21	N2	0.346300	0.023500	0.947700
N31	N3	0.388800	0.208100	0.242200
N41	N4	0.395100	0.346200	0.276200
N51	N5	0.167000	0.954800	0.585500
N61	N6	0.153700	0.976500	0.447700
N71	N7	0.111200	0.791900	0.742200
N81	N8	0.104900	0.653800	0.776200
N91	N9	0.667000	0.545200	0.414500
N101	N10	0.653700	0.523500	0.552300
N111	N11	0.611200	0.708100	0.257800
N121	N12	0.604900	0.846200	0.223800
N131	N13	0.833000	0.454800	0.914500
N141	N14	0.846300	0.476500	0.052300
N151	N15	0.888800	0.291900	0.757800
N161	N16	0.895100	0.153800	0.723800
N171	N17	0.667000	0.954800	0.914500
N181	N18	0.653700	0.976500	0.052300
N191	N19	0.611200	0.791900	0.757800
N201	N20	0.604900	0.653800	0.723800
N211	N21	0.833000	0.045200	0.414500
N221	N22	0.846300	0.023500	0.552300
N231	N23	0.888800	0.208100	0.257800
N241	N24	0.895100	0.346200	0.223800
N251	N25	0.333000	0.454800	0.585500
N261	N26	0.346300	0.476500	0.447700
N271	N27	0.388800	0.291900	0.742200
N281	N28	0.395100	0.153800	0.776200
N291	N29	0.167000	0.545200	0.085500
N301	N30	0.153700	0.523500	0.947700
N311	N31	0.111200	0.708100	0.242200
N321	N32	0.104900	0.846200	0.276200
O11	O1	0.192800	0.024500	0.192000
O21	O2	0.096900	0.960800	0.102200
O31	O3	0.231300	0.953600	0.836700
O41	O4	0.109000	0.941800	0.920100
O51	O5	0.631600	0.366400	0.197500
O61	O6	0.526300	0.106700	0.173200
O71	O7	0.624500	0.215900	0.158600
O81	O8	0.540800	0.459600	0.263800
O91	O9	0.307200	0.975500	0.692000
O101	O10	0.403100	0.039200	0.602200
O111	O11	0.268700	0.046400	0.336700
O121	O12	0.391000	0.058200	0.420100
O131	O13	0.868400	0.633600	0.697500
O141	O14	0.973700	0.893300	0.673200
O151	O15	0.875500	0.784100	0.658600
O161	O16	0.959200	0.540400	0.763800
O171	O17	0.807200	0.524500	0.308000
O181	O18	0.903100	0.460800	0.397800
O191	O19	0.768700	0.453600	0.663300
O201	O20	0.891000	0.441800	0.579900
O211	O21	0.368400	0.866400	0.302500
O221	O22	0.473700	0.606700	0.326800
O231	O23	0.375500	0.715900	0.341400
O241	O24	0.459200	0.959600	0.236200
O251	O25	0.692800	0.475500	0.808000
O261	O26	0.596900	0.539200	0.897800
O271	O27	0.731300	0.546400	0.163300
O281	O28	0.609000	0.558200	0.079900
O291	O29	0.131600	0.133600	0.802500
O301	O30	0.026300	0.393300	0.826800
O311	O31	0.124500	0.284100	0.841400
O321	O32	0.040800	0.040400	0.736200
O331	O33	0.807200	0.975500	0.808000
O341	O34	0.903100	0.039200	0.897800
O351	O35	0.768700	0.046400	0.163300
O361	O36	0.891000	0.058200	0.079900
O371	O37	0.368400	0.633600	0.802500
O381	O38	0.473700	0.893300	0.826800
O391	O39	0.375500	0.784100	0.841400
O401	O40	0.459200	0.540400	0.736200
O411	O41	0.692800	0.024500	0.308000
O421	O42	0.596900	0.960800	0.397800
O431	O43	0.731300	0.953600	0.663300
O441	O44	0.609000	0.941800	0.579900
O451	O45	0.131600	0.366400	0.302500
O461	O46	0.026300	0.106700	0.326800
O471	O47	0.124500	0.215900	0.341400
O481	O48	0.040800	0.459600	0.236200
O491	O49	0.192800	0.475500	0.692000
O501	O50	0.096900	0.539200	0.602200
O511	O51	0.231300	0.546400	0.336700
O521	O52	0.109000	0.558200	0.420100
O531	O53	0.631600	0.133600	0.697500
O541	O54	0.526300	0.393300	0.673200
O551	O55	0.624500	0.284100	0.658600
O561	O56	0.540800	0.040400	0.763800
O571	O57	0.307200	0.524500	0.192000
O581	O58	0.403100	0.460800	0.102200
O591	O59	0.268700	0.453600	0.836700
O601	O60	0.391000	0.441800	0.920100
O611	O61	0.868400	0.866400	0.197500
O621	O62	0.973700	0.606700	0.173200
O631	O63	0.875500	0.715900	0.158600
O641	O64	0.959200	0.959600	0.263800
