data_UXINAR_clean_PM
_symmetry_space_group_name_H-M	'P1'
_cell_length_a	18.861300
_cell_length_b	9.085600
_cell_length_c	24.948500
_cell_angle_alpha	90.000000
_cell_angle_beta	107.211000
_cell_angle_gamma	90.000000
_symmetry_Int_Tables_number 1

loop_
_symmetry_equiv_pos_as_xyz
'x,y,z'

loop_
_atom_site_label
_atom_site_type_symbol
_atom_site_fract_x
_atom_site_fract_y
_atom_site_fract_z
Zn11	Zn1	0.085950	0.716370	0.277560
Zn21	Zn2	0.768040	0.700600	0.175030
Zn31	Zn3	0.241830	0.470900	0.501090
Zn41	Zn4	0.263330	0.951520	0.493970
Zn51	Zn5	0.279960	0.324200	0.179940
Zn61	Zn6	0.406200	0.712420	0.721330
P11	P1	0.923910	0.559990	0.247510
H11	H1	0.914700	0.632000	0.285000
P21	P2	0.177630	0.467370	0.239520
H21	H2	0.117000	0.407000	0.229100
P31	P3	0.153440	0.727750	0.416220
H31	H3	0.114000	0.766000	0.447000
P41	P4	0.680070	0.739510	0.049530
H41	H4	0.626000	0.750500	0.075000
P51	P5	0.190240	0.186290	0.552460
H51	H5	0.137000	0.179400	0.576300
P61	P6	0.339930	0.708290	0.586220
H61	H6	0.401000	0.640000	0.588330
P71	P7	0.431210	0.453060	0.258930
H71	H7	0.408000	0.387000	0.296000
P81	P8	0.666300	0.559470	0.234500
H81	H8	0.602000	0.616000	0.229000
O11	O1	0.999200	0.597700	0.243900
O21	O2	0.864600	0.608300	0.194500
O31	O3	0.915100	0.400600	0.262100
O41	O4	0.167700	0.628400	0.253900
O51	O5	0.203000	0.458100	0.187300
O61	O6	0.229900	0.389300	0.289000
O71	O7	0.104000	0.729300	0.357600
O81	O8	0.214300	0.844500	0.425300
O91	O9	0.181700	0.576900	0.435500
O101	O10	0.673600	0.874700	0.012600
O111	O11	0.753300	0.732600	0.095400
O121	O12	0.664800	0.598600	0.014600
O131	O13	0.184900	0.045800	0.518400
O141	O14	0.174000	0.320400	0.514500
O151	O15	0.261700	0.201700	0.599700
O161	O16	0.278600	0.600200	0.565000
O171	O17	0.344500	0.750000	0.646300
O181	O18	0.336100	0.839500	0.549700
O191	O19	0.508900	0.407300	0.270200
O201	O20	0.420400	0.613500	0.267900
O211	O21	0.381400	0.396100	0.203200
O221	O22	0.685200	0.582300	0.180200
O231	O23	0.661600	0.393100	0.245400
O241	O24	0.722200	0.633600	0.284000
Zn71	Zn7	0.914050	0.216370	0.222440
Zn81	Zn8	0.231960	0.200600	0.324970
Zn91	Zn9	0.758170	0.970900	0.998910
Zn101	Zn10	0.736670	0.451520	0.006030
Zn111	Zn11	0.720040	0.824200	0.320060
Zn121	Zn12	0.593800	0.212420	0.778670
P91	P9	0.076090	0.059990	0.252490
H91	H9	0.085300	0.132000	0.215000
P101	P10	0.822370	0.967370	0.260480
H101	H10	0.883000	0.907000	0.270900
P111	P11	0.846560	0.227750	0.083780
H111	H11	0.886000	0.266000	0.053000
P121	P12	0.319930	0.239510	0.450470
H121	H12	0.374000	0.250500	0.425000
P131	P13	0.809760	0.686290	0.947540
H131	H13	0.863000	0.679400	0.923700
P141	P14	0.660070	0.208290	0.913780
H141	H14	0.599000	0.140000	0.911670
P151	P15	0.568790	0.953060	0.241070
H151	H15	0.592000	0.887000	0.204000
P161	P16	0.333700	0.059470	0.265500
H161	H16	0.398000	0.116000	0.271000
O251	O25	0.000800	0.097700	0.256100
O261	O26	0.135400	0.108300	0.305500
O271	O27	0.084900	0.900600	0.237900
O281	O28	0.832300	0.128400	0.246100
O291	O29	0.797000	0.958100	0.312700
O301	O30	0.770100	0.889300	0.211000
O311	O31	0.896000	0.229300	0.142400
O321	O32	0.785700	0.344500	0.074700
O331	O33	0.818300	0.076900	0.064500
O341	O34	0.326400	0.374700	0.487400
O351	O35	0.246700	0.232600	0.404600
O361	O36	0.335200	0.098600	0.485400
O371	O37	0.815100	0.545800	0.981600
O381	O38	0.826000	0.820400	0.985500
O391	O39	0.738300	0.701700	0.900300
O401	O40	0.721400	0.100200	0.935000
O411	O41	0.655500	0.250000	0.853700
O421	O42	0.663900	0.339500	0.950300
O431	O43	0.491100	0.907300	0.229800
O441	O44	0.579600	0.113500	0.232100
O451	O45	0.618600	0.896100	0.296800
O461	O46	0.314800	0.082300	0.319800
O471	O47	0.338400	0.893100	0.254600
O481	O48	0.277800	0.133600	0.216000
Zn131	Zn13	0.914050	0.283630	0.722440
Zn141	Zn14	0.231960	0.299400	0.824970
Zn151	Zn15	0.758170	0.529100	0.498910
Zn161	Zn16	0.736670	0.048480	0.506030
Zn171	Zn17	0.720040	0.675800	0.820060
Zn181	Zn18	0.593800	0.287580	0.278670
P171	P17	0.076090	0.440010	0.752490
H171	H17	0.085300	0.368000	0.715000
P181	P18	0.822370	0.532630	0.760480
H181	H18	0.883000	0.593000	0.770900
P191	P19	0.846560	0.272250	0.583780
H191	H19	0.886000	0.234000	0.553000
P201	P20	0.319930	0.260490	0.950470
H201	H20	0.374000	0.249500	0.925000
P211	P21	0.809760	0.813710	0.447540
H211	H21	0.863000	0.820600	0.423700
P221	P22	0.660070	0.291710	0.413780
H221	H22	0.599000	0.360000	0.411670
P231	P23	0.568790	0.546940	0.741070
H231	H23	0.592000	0.613000	0.704000
P241	P24	0.333700	0.440530	0.765500
H241	H24	0.398000	0.384000	0.771000
O491	O49	0.000800	0.402300	0.756100
O501	O50	0.135400	0.391700	0.805500
O511	O51	0.084900	0.599400	0.737900
O521	O52	0.832300	0.371600	0.746100
O531	O53	0.797000	0.541900	0.812700
O541	O54	0.770100	0.610700	0.711000
O551	O55	0.896000	0.270700	0.642400
O561	O56	0.785700	0.155500	0.574700
O571	O57	0.818300	0.423100	0.564500
O581	O58	0.326400	0.125300	0.987400
O591	O59	0.246700	0.267400	0.904600
O601	O60	0.335200	0.401400	0.985400
O611	O61	0.815100	0.954200	0.481600
O621	O62	0.826000	0.679600	0.485500
O631	O63	0.738300	0.798300	0.400300
O641	O64	0.721400	0.399800	0.435000
O651	O65	0.655500	0.250000	0.353700
O661	O66	0.663900	0.160500	0.450300
O671	O67	0.491100	0.592700	0.729800
O681	O68	0.579600	0.386500	0.732100
O691	O69	0.618600	0.603900	0.796800
O701	O70	0.314800	0.417700	0.819800
O711	O71	0.338400	0.606900	0.754600
O721	O72	0.277800	0.366400	0.716000
Zn191	Zn19	0.085950	0.783630	0.777560
Zn201	Zn20	0.768040	0.799400	0.675030
Zn211	Zn21	0.241830	0.029100	0.001090
Zn221	Zn22	0.263330	0.548480	0.993970
Zn231	Zn23	0.279960	0.175800	0.679940
Zn241	Zn24	0.406200	0.787580	0.221330
P251	P25	0.923910	0.940010	0.747510
H251	H25	0.914700	0.868000	0.785000
P261	P26	0.177630	0.032630	0.739520
H261	H26	0.117000	0.093000	0.729100
P271	P27	0.153440	0.772250	0.916220
H271	H27	0.114000	0.734000	0.947000
P281	P28	0.680070	0.760490	0.549530
H281	H28	0.626000	0.749500	0.575000
P291	P29	0.190240	0.313710	0.052460
H291	H29	0.137000	0.320600	0.076300
P301	P30	0.339930	0.791710	0.086220
H301	H30	0.401000	0.860000	0.088330
P311	P31	0.431210	0.046940	0.758930
H311	H31	0.408000	0.113000	0.796000
P321	P32	0.666300	0.940530	0.734500
H321	H32	0.602000	0.884000	0.729000
O731	O73	0.999200	0.902300	0.743900
O741	O74	0.864600	0.891700	0.694500
O751	O75	0.915100	0.099400	0.762100
O761	O76	0.167700	0.871600	0.753900
O771	O77	0.203000	0.041900	0.687300
O781	O78	0.229900	0.110700	0.789000
O791	O79	0.104000	0.770700	0.857600
O801	O80	0.214300	0.655500	0.925300
O811	O81	0.181700	0.923100	0.935500
O821	O82	0.673600	0.625300	0.512600
O831	O83	0.753300	0.767400	0.595400
O841	O84	0.664800	0.901400	0.514600
O851	O85	0.184900	0.454200	0.018400
O861	O86	0.174000	0.179600	0.014500
O871	O87	0.261700	0.298300	0.099700
O881	O88	0.278600	0.899800	0.065000
O891	O89	0.344500	0.750000	0.146300
O901	O90	0.336100	0.660500	0.049700
O911	O91	0.508900	0.092700	0.770200
O921	O92	0.420400	0.886500	0.767900
O931	O93	0.381400	0.103900	0.703200
O941	O94	0.685200	0.917700	0.680200
O951	O95	0.661600	0.106900	0.745400
O961	O96	0.722200	0.866400	0.784000
