data_UXIQOJ_clean_PM
_symmetry_space_group_name_H-M	'P1'
_cell_length_a	15.178000
_cell_length_b	15.178000
_cell_length_c	12.081300
_cell_angle_alpha	90.000000
_cell_angle_beta	90.000000
_cell_angle_gamma	90.000000
_symmetry_Int_Tables_number 1

loop_
_symmetry_equiv_pos_as_xyz
'x,y,z'

loop_
_atom_site_label
_atom_site_type_symbol
_atom_site_fract_x
_atom_site_fract_y
_atom_site_fract_z
O11	O1	0.382700	0.376700	0.888200
O21	O2	0.286900	0.404500	0.749200
C11	C1	0.359900	0.410000	0.796800
C21	C2	0.431500	0.460200	0.736000
C31	C3	0.430400	0.462900	0.623100
H11	H1	0.382200	0.439500	0.585700
O31	O3	0.882700	0.876700	0.388200
O41	O4	0.786900	0.904500	0.249200
C41	C4	0.859900	0.910000	0.296800
C51	C5	0.931500	0.960200	0.236000
C61	C6	0.930400	0.962900	0.123100
H21	H2	0.882200	0.939500	0.085700
O51	O5	0.117300	0.123300	0.388200
O61	O6	0.213100	0.095500	0.249200
C71	C7	0.140100	0.090000	0.296800
C81	C8	0.068500	0.039800	0.236000
C91	C9	0.069600	0.037100	0.123100
H31	H3	0.117800	0.060500	0.085700
O71	O7	0.617300	0.623300	0.888200
O81	O8	0.713100	0.595500	0.749200
C101	C10	0.640100	0.590000	0.796800
C111	C11	0.568500	0.539800	0.736000
C121	C12	0.569600	0.537100	0.623100
H41	H4	0.617800	0.560500	0.585700
O91	O9	0.623300	0.882700	0.138200
O101	O10	0.595500	0.786900	0.999200
C131	C13	0.590000	0.859900	0.046800
C141	C14	0.539800	0.931500	0.986000
C151	C15	0.537100	0.930400	0.873100
H51	H5	0.560500	0.882200	0.835700
O111	O11	0.123300	0.382700	0.638200
O121	O12	0.095500	0.286900	0.499200
C161	C16	0.090000	0.359900	0.546800
C171	C17	0.039800	0.431500	0.486000
C181	C18	0.037100	0.430400	0.373100
H61	H6	0.060500	0.382200	0.335700
O131	O13	0.876700	0.617300	0.638200
O141	O14	0.904500	0.713100	0.499200
C191	C19	0.910000	0.640100	0.546800
C201	C20	0.960200	0.568500	0.486000
C211	C21	0.962900	0.569600	0.373100
H71	H7	0.939500	0.617800	0.335700
O151	O15	0.376700	0.117300	0.138200
O161	O16	0.404500	0.213100	0.999200
C221	C22	0.410000	0.140100	0.046800
C231	C23	0.460200	0.068500	0.986000
C241	C24	0.462900	0.069600	0.873100
H81	H8	0.439500	0.117800	0.835700
O171	O17	0.117300	0.376700	0.861800
O181	O18	0.213100	0.404500	0.000800
C251	C25	0.140100	0.410000	0.953200
C261	C26	0.068500	0.460200	0.014000
C271	C27	0.069600	0.462900	0.126900
H91	H9	0.117800	0.439500	0.164300
O191	O19	0.617300	0.876700	0.361800
O201	O20	0.713100	0.904500	0.500800
C281	C28	0.640100	0.910000	0.453200
C291	C29	0.568500	0.960200	0.514000
C301	C30	0.569600	0.962900	0.626900
H101	H10	0.617800	0.939500	0.664300
O211	O21	0.382700	0.123300	0.361800
O221	O22	0.286900	0.095500	0.500800
C311	C31	0.359900	0.090000	0.453200
C321	C32	0.431500	0.039800	0.514000
C331	C33	0.430400	0.037100	0.626900
H111	H11	0.382200	0.060500	0.664300
O231	O23	0.882700	0.623300	0.861800
O241	O24	0.786900	0.595500	0.000800
C341	C34	0.859900	0.590000	0.953200
C351	C35	0.931500	0.539800	0.014000
C361	C36	0.930400	0.537100	0.126900
H121	H12	0.882200	0.560500	0.164300
O251	O25	0.876700	0.882700	0.611800
O261	O26	0.904500	0.786900	0.750800
C371	C37	0.910000	0.859900	0.703200
C381	C38	0.960200	0.931500	0.764000
C391	C39	0.962900	0.930400	0.876900
H131	H13	0.939500	0.882200	0.914300
O271	O27	0.376700	0.382700	0.111800
O281	O28	0.404500	0.286900	0.250800
C401	C40	0.410000	0.359900	0.203200
C411	C41	0.460200	0.431500	0.264000
C421	C42	0.462900	0.430400	0.376900
H141	H14	0.439500	0.382200	0.414300
O291	O29	0.623300	0.617300	0.111800
O301	O30	0.595500	0.713100	0.250800
C431	C43	0.590000	0.640100	0.203200
C441	C44	0.539800	0.568500	0.264000
C451	C45	0.537100	0.569600	0.376900
H151	H15	0.560500	0.617800	0.414300
O311	O31	0.123300	0.117300	0.611800
O321	O32	0.095500	0.213100	0.750800
C461	C46	0.090000	0.140100	0.703200
C471	C47	0.039800	0.068500	0.764000
C481	C48	0.037100	0.069600	0.876900
H161	H16	0.060500	0.117800	0.914300
Ni11	Ni1	0.189640	0.310360	0.750000
Ni21	Ni2	0.310360	0.189640	0.250000
Ni31	Ni3	0.689640	0.689640	0.000000
Ni41	Ni4	0.810360	0.810360	0.500000
Ni51	Ni5	0.310360	0.310360	0.000000
Ni61	Ni6	0.189640	0.189640	0.500000
Ni71	Ni7	0.810360	0.689640	0.750000
Ni81	Ni8	0.689640	0.810360	0.250000
O331	O33	0.250000	0.236400	0.875000
O341	O34	0.750000	0.736400	0.375000
O351	O35	0.250000	0.263600	0.375000
O361	O36	0.750000	0.763600	0.875000
O371	O37	0.763600	0.750000	0.125000
O381	O38	0.263600	0.250000	0.625000
O391	O39	0.736400	0.750000	0.625000
O401	O40	0.236400	0.250000	0.125000
C491	C49	0.500000	0.500000	0.794500
H171	H17	0.500000	0.500000	0.871500
C501	C50	0.500000	0.500000	0.561400
C511	C51	0.000000	0.000000	0.294500
H181	H18	0.000000	0.000000	0.371500
C521	C52	0.000000	0.000000	0.061400
C531	C53	0.500000	0.000000	0.044500
H191	H19	0.500000	0.000000	0.121500
C541	C54	0.500000	0.000000	0.811400
C551	C55	0.000000	0.500000	0.544500
H201	H20	0.000000	0.500000	0.621500
C561	C56	0.000000	0.500000	0.311400
C571	C57	0.000000	0.500000	0.955500
H211	H21	0.000000	0.500000	0.878500
C581	C58	0.000000	0.500000	0.188600
C591	C59	0.500000	0.000000	0.455500
H221	H22	0.500000	0.000000	0.378500
C601	C60	0.500000	0.000000	0.688600
C611	C61	0.000000	0.000000	0.705500
H231	H23	0.000000	0.000000	0.628500
C621	C62	0.000000	0.000000	0.938600
C631	C63	0.500000	0.500000	0.205500
H241	H24	0.500000	0.500000	0.128500
C641	C64	0.500000	0.500000	0.438600
