data_UXISUR_clean_PM
_symmetry_space_group_name_H-M	'P1'
_cell_length_a	26.350400
_cell_length_b	26.350400
_cell_length_c	26.350400
_cell_angle_alpha	90.000000
_cell_angle_beta	90.000000
_cell_angle_gamma	90.000000
_symmetry_Int_Tables_number 1

loop_
_symmetry_equiv_pos_as_xyz
'x,y,z'

loop_
_atom_site_label
_atom_site_type_symbol
_atom_site_fract_x
_atom_site_fract_y
_atom_site_fract_z
O11	O1	0.683410	0.447540	0.243250
O21	O2	0.683410	0.947540	0.743250
O31	O3	0.183410	0.447540	0.743250
O41	O4	0.183410	0.947540	0.243250
O51	O5	0.316590	0.552460	0.243250
O61	O6	0.316590	0.052460	0.743250
O71	O7	0.816590	0.552460	0.743250
O81	O8	0.816590	0.052460	0.243250
O91	O9	0.316590	0.447540	0.756750
O101	O10	0.316590	0.947540	0.256750
O111	O11	0.816590	0.447540	0.256750
O121	O12	0.816590	0.947540	0.756750
O131	O13	0.683410	0.552460	0.756750
O141	O14	0.683410	0.052460	0.256750
O151	O15	0.183410	0.552460	0.256750
O161	O16	0.183410	0.052460	0.756750
O171	O17	0.243250	0.683410	0.447540
O181	O18	0.243250	0.183410	0.947540
O191	O19	0.743250	0.683410	0.947540
O201	O20	0.743250	0.183410	0.447540
O211	O21	0.243250	0.316590	0.552460
O221	O22	0.243250	0.816590	0.052460
O231	O23	0.743250	0.316590	0.052460
O241	O24	0.743250	0.816590	0.552460
O251	O25	0.756750	0.316590	0.447540
O261	O26	0.756750	0.816590	0.947540
O271	O27	0.256750	0.316590	0.947540
O281	O28	0.256750	0.816590	0.447540
O291	O29	0.756750	0.683410	0.552460
O301	O30	0.756750	0.183410	0.052460
O311	O31	0.256750	0.683410	0.052460
O321	O32	0.256750	0.183410	0.552460
O331	O33	0.447540	0.243250	0.683410
O341	O34	0.447540	0.743250	0.183410
O351	O35	0.947540	0.243250	0.183410
O361	O36	0.947540	0.743250	0.683410
O371	O37	0.552460	0.243250	0.316590
O381	O38	0.552460	0.743250	0.816590
O391	O39	0.052460	0.243250	0.816590
O401	O40	0.052460	0.743250	0.316590
O411	O41	0.447540	0.756750	0.316590
O421	O42	0.447540	0.256750	0.816590
O431	O43	0.947540	0.756750	0.816590
O441	O44	0.947540	0.256750	0.316590
O451	O45	0.552460	0.756750	0.683410
O461	O46	0.552460	0.256750	0.183410
O471	O47	0.052460	0.756750	0.183410
O481	O48	0.052460	0.256750	0.683410
O491	O49	0.447540	0.683410	0.756750
O501	O50	0.447540	0.183410	0.256750
O511	O51	0.947540	0.683410	0.256750
O521	O52	0.947540	0.183410	0.756750
O531	O53	0.552460	0.316590	0.756750
O541	O54	0.552460	0.816590	0.256750
O551	O55	0.052460	0.316590	0.256750
O561	O56	0.052460	0.816590	0.756750
O571	O57	0.447540	0.316590	0.243250
O581	O58	0.447540	0.816590	0.743250
O591	O59	0.947540	0.316590	0.743250
O601	O60	0.947540	0.816590	0.243250
O611	O61	0.552460	0.683410	0.243250
O621	O62	0.552460	0.183410	0.743250
O631	O63	0.052460	0.683410	0.743250
O641	O64	0.052460	0.183410	0.243250
O651	O65	0.683410	0.243250	0.552460
O661	O66	0.683410	0.743250	0.052460
O671	O67	0.183410	0.243250	0.052460
O681	O68	0.183410	0.743250	0.552460
O691	O69	0.316590	0.243250	0.447540
O701	O70	0.316590	0.743250	0.947540
O711	O71	0.816590	0.243250	0.947540
O721	O72	0.816590	0.743250	0.447540
O731	O73	0.316590	0.756750	0.552460
O741	O74	0.316590	0.256750	0.052460
O751	O75	0.816590	0.756750	0.052460
O761	O76	0.816590	0.256750	0.552460
O771	O77	0.683410	0.756750	0.447540
O781	O78	0.683410	0.256750	0.947540
O791	O79	0.183410	0.756750	0.947540
O801	O80	0.183410	0.256750	0.447540
O811	O81	0.243250	0.447540	0.316590
O821	O82	0.243250	0.947540	0.816590
O831	O83	0.743250	0.447540	0.816590
O841	O84	0.743250	0.947540	0.316590
O851	O85	0.243250	0.552460	0.683410
O861	O86	0.243250	0.052460	0.183410
O871	O87	0.743250	0.552460	0.183410
O881	O88	0.743250	0.052460	0.683410
O891	O89	0.756750	0.447540	0.683410
O901	O90	0.756750	0.947540	0.183410
O911	O91	0.256750	0.447540	0.183410
O921	O92	0.256750	0.947540	0.683410
O931	O93	0.756750	0.552460	0.316590
O941	O94	0.756750	0.052460	0.816590
O951	O95	0.256750	0.552460	0.816590
O961	O96	0.256750	0.052460	0.316590
O971	O97	0.316590	0.552460	0.756750
O981	O98	0.316590	0.052460	0.256750
O991	O99	0.816590	0.552460	0.256750
O1001	O100	0.816590	0.052460	0.756750
O1011	O101	0.683410	0.447540	0.756750
O1021	O102	0.683410	0.947540	0.256750
O1031	O103	0.183410	0.447540	0.256750
O1041	O104	0.183410	0.947540	0.756750
O1051	O105	0.683410	0.552460	0.243250
O1061	O106	0.683410	0.052460	0.743250
O1071	O107	0.183410	0.552460	0.743250
O1081	O108	0.183410	0.052460	0.243250
O1091	O109	0.316590	0.447540	0.243250
O1101	O110	0.316590	0.947540	0.743250
O1111	O111	0.816590	0.447540	0.743250
O1121	O112	0.816590	0.947540	0.243250
O1131	O113	0.756750	0.316590	0.552460
O1141	O114	0.756750	0.816590	0.052460
O1151	O115	0.256750	0.316590	0.052460
O1161	O116	0.256750	0.816590	0.552460
O1171	O117	0.756750	0.683410	0.447540
O1181	O118	0.756750	0.183410	0.947540
O1191	O119	0.256750	0.683410	0.947540
O1201	O120	0.256750	0.183410	0.447540
O1211	O121	0.243250	0.683410	0.552460
O1221	O122	0.243250	0.183410	0.052460
O1231	O123	0.743250	0.683410	0.052460
O1241	O124	0.743250	0.183410	0.552460
O1251	O125	0.243250	0.316590	0.447540
O1261	O126	0.243250	0.816590	0.947540
O1271	O127	0.743250	0.316590	0.947540
O1281	O128	0.743250	0.816590	0.447540
O1291	O129	0.552460	0.756750	0.316590
O1301	O130	0.552460	0.256750	0.816590
O1311	O131	0.052460	0.756750	0.816590
O1321	O132	0.052460	0.256750	0.316590
O1331	O133	0.447540	0.756750	0.683410
O1341	O134	0.447540	0.256750	0.183410
O1351	O135	0.947540	0.756750	0.183410
O1361	O136	0.947540	0.256750	0.683410
O1371	O137	0.552460	0.243250	0.683410
O1381	O138	0.552460	0.743250	0.183410
O1391	O139	0.052460	0.243250	0.183410
O1401	O140	0.052460	0.743250	0.683410
O1411	O141	0.447540	0.243250	0.316590
O1421	O142	0.447540	0.743250	0.816590
O1431	O143	0.947540	0.243250	0.816590
O1441	O144	0.947540	0.743250	0.316590
O1451	O145	0.552460	0.316590	0.243250
O1461	O146	0.552460	0.816590	0.743250
O1471	O147	0.052460	0.316590	0.743250
O1481	O148	0.052460	0.816590	0.243250
O1491	O149	0.447540	0.683410	0.243250
O1501	O150	0.447540	0.183410	0.743250
O1511	O151	0.947540	0.683410	0.743250
O1521	O152	0.947540	0.183410	0.243250
O1531	O153	0.552460	0.683410	0.756750
O1541	O154	0.552460	0.183410	0.256750
O1551	O155	0.052460	0.683410	0.256750
O1561	O156	0.052460	0.183410	0.756750
O1571	O157	0.447540	0.316590	0.756750
O1581	O158	0.447540	0.816590	0.256750
O1591	O159	0.947540	0.316590	0.256750
O1601	O160	0.947540	0.816590	0.756750
O1611	O161	0.316590	0.756750	0.447540
O1621	O162	0.316590	0.256750	0.947540
O1631	O163	0.816590	0.756750	0.947540
O1641	O164	0.816590	0.256750	0.447540
O1651	O165	0.683410	0.756750	0.552460
O1661	O166	0.683410	0.256750	0.052460
O1671	O167	0.183410	0.756750	0.052460
O1681	O168	0.183410	0.256750	0.552460
O1691	O169	0.683410	0.243250	0.447540
O1701	O170	0.683410	0.743250	0.947540
O1711	O171	0.183410	0.243250	0.947540
O1721	O172	0.183410	0.743250	0.447540
O1731	O173	0.316590	0.243250	0.552460
O1741	O174	0.316590	0.743250	0.052460
O1751	O175	0.816590	0.243250	0.052460
O1761	O176	0.816590	0.743250	0.552460
O1771	O177	0.756750	0.552460	0.683410
O1781	O178	0.756750	0.052460	0.183410
O1791	O179	0.256750	0.552460	0.183410
O1801	O180	0.256750	0.052460	0.683410
O1811	O181	0.756750	0.447540	0.316590
O1821	O182	0.756750	0.947540	0.816590
O1831	O183	0.256750	0.447540	0.816590
O1841	O184	0.256750	0.947540	0.316590
O1851	O185	0.243250	0.552460	0.316590
O1861	O186	0.243250	0.052460	0.816590
O1871	O187	0.743250	0.552460	0.816590
O1881	O188	0.743250	0.052460	0.316590
O1891	O189	0.243250	0.447540	0.683410
O1901	O190	0.243250	0.947540	0.183410
O1911	O191	0.743250	0.447540	0.183410
O1921	O192	0.743250	0.947540	0.683410
Cu11	Cu1	0.714770	0.500000	0.285230
Cu21	Cu2	0.714770	0.000000	0.785230
Cu31	Cu3	0.214770	0.500000	0.785230
Cu41	Cu4	0.214770	0.000000	0.285230
Cu51	Cu5	0.285230	0.500000	0.285230
Cu61	Cu6	0.285230	0.000000	0.785230
Cu71	Cu7	0.785230	0.500000	0.785230
Cu81	Cu8	0.785230	0.000000	0.285230
Cu91	Cu9	0.285230	0.500000	0.714770
Cu101	Cu10	0.285230	0.000000	0.214770
Cu111	Cu11	0.785230	0.500000	0.214770
Cu121	Cu12	0.785230	0.000000	0.714770
Cu131	Cu13	0.714770	0.500000	0.714770
Cu141	Cu14	0.714770	0.000000	0.214770
Cu151	Cu15	0.214770	0.500000	0.214770
Cu161	Cu16	0.214770	0.000000	0.714770
Cu171	Cu17	0.285230	0.714770	0.500000
Cu181	Cu18	0.285230	0.214770	0.000000
Cu191	Cu19	0.785230	0.714770	0.000000
Cu201	Cu20	0.785230	0.214770	0.500000
Cu211	Cu21	0.285230	0.285230	0.500000
Cu221	Cu22	0.285230	0.785230	0.000000
Cu231	Cu23	0.785230	0.285230	0.000000
Cu241	Cu24	0.785230	0.785230	0.500000
Cu251	Cu25	0.714770	0.285230	0.500000
Cu261	Cu26	0.714770	0.785230	0.000000
Cu271	Cu27	0.214770	0.285230	0.000000
Cu281	Cu28	0.214770	0.785230	0.500000
Cu291	Cu29	0.714770	0.714770	0.500000
Cu301	Cu30	0.714770	0.214770	0.000000
Cu311	Cu31	0.214770	0.714770	0.000000
Cu321	Cu32	0.214770	0.214770	0.500000
Cu331	Cu33	0.500000	0.285230	0.714770
Cu341	Cu34	0.500000	0.785230	0.214770
Cu351	Cu35	0.000000	0.285230	0.214770
Cu361	Cu36	0.000000	0.785230	0.714770
Cu371	Cu37	0.500000	0.285230	0.285230
Cu381	Cu38	0.500000	0.785230	0.785230
Cu391	Cu39	0.000000	0.285230	0.785230
Cu401	Cu40	0.000000	0.785230	0.285230
Cu411	Cu41	0.500000	0.714770	0.285230
Cu421	Cu42	0.500000	0.214770	0.785230
Cu431	Cu43	0.000000	0.714770	0.785230
Cu441	Cu44	0.000000	0.214770	0.285230
Cu451	Cu45	0.500000	0.714770	0.714770
Cu461	Cu46	0.500000	0.214770	0.214770
Cu471	Cu47	0.000000	0.714770	0.214770
Cu481	Cu48	0.000000	0.214770	0.714770
C11	C1	0.703550	0.430820	0.203550
C21	C2	0.678020	0.386520	0.178020
C31	C3	0.703550	0.930820	0.703550
C41	C4	0.678020	0.886520	0.678020
C51	C5	0.296450	0.569180	0.203550
C61	C6	0.321980	0.613480	0.178020
C71	C7	0.296450	0.069180	0.703550
C81	C8	0.321980	0.113480	0.678020
C91	C9	0.796450	0.569180	0.703550
C101	C10	0.821980	0.613480	0.678020
C111	C11	0.296450	0.430820	0.796450
C121	C12	0.321980	0.386520	0.821980
C131	C13	0.296450	0.930820	0.296450
C141	C14	0.321980	0.886520	0.321980
C151	C15	0.796450	0.930820	0.796450
C161	C16	0.821980	0.886520	0.821980
C171	C17	0.703550	0.569180	0.796450
C181	C18	0.678020	0.613480	0.821980
C191	C19	0.703550	0.069180	0.296450
C201	C20	0.678020	0.113480	0.321980
C211	C21	0.203550	0.703550	0.430820
C221	C22	0.178020	0.678020	0.386520
C231	C23	0.203550	0.203550	0.930820
C241	C24	0.178020	0.178020	0.886520
C251	C25	0.703550	0.703550	0.930820
C261	C26	0.678020	0.678020	0.886520
C271	C27	0.203550	0.296450	0.569180
C281	C28	0.178020	0.321980	0.613480
C291	C29	0.203550	0.796450	0.069180
C301	C30	0.178020	0.821980	0.113480
C311	C31	0.703550	0.796450	0.569180
C321	C32	0.678020	0.821980	0.613480
C331	C33	0.796450	0.296450	0.430820
C341	C34	0.821980	0.321980	0.386520
C351	C35	0.796450	0.796450	0.930820
C361	C36	0.821980	0.821980	0.886520
C371	C37	0.796450	0.703550	0.569180
C381	C38	0.821980	0.678020	0.613480
C391	C39	0.796450	0.203550	0.069180
C401	C40	0.821980	0.178020	0.113480
C411	C41	0.430820	0.203550	0.703550
C421	C42	0.386520	0.178020	0.678020
C431	C43	0.930820	0.203550	0.203550
C441	C44	0.886520	0.178020	0.178020
C451	C45	0.930820	0.703550	0.703550
C461	C46	0.886520	0.678020	0.678020
C471	C47	0.569180	0.203550	0.296450
C481	C48	0.613480	0.178020	0.321980
C491	C49	0.569180	0.703550	0.796450
C501	C50	0.613480	0.678020	0.821980
C511	C51	0.069180	0.203550	0.796450
C521	C52	0.113480	0.178020	0.821980
C531	C53	0.430820	0.796450	0.296450
C541	C54	0.386520	0.821980	0.321980
C551	C55	0.930820	0.796450	0.796450
C561	C56	0.886520	0.821980	0.821980
C571	C57	0.569180	0.796450	0.703550
C581	C58	0.613480	0.821980	0.678020
C591	C59	0.069180	0.796450	0.203550
C601	C60	0.113480	0.821980	0.178020
C611	C61	0.430820	0.703550	0.796450
C621	C62	0.386520	0.678020	0.821980
C631	C63	0.930820	0.703550	0.296450
C641	C64	0.886520	0.678020	0.321980
C651	C65	0.569180	0.296450	0.796450
C661	C66	0.613480	0.321980	0.821980
C671	C67	0.069180	0.296450	0.296450
C681	C68	0.113480	0.321980	0.321980
C691	C69	0.069180	0.796450	0.796450
C701	C70	0.113480	0.821980	0.821980
C711	C71	0.430820	0.296450	0.203550
C721	C72	0.386520	0.321980	0.178020
C731	C73	0.430820	0.796450	0.703550
C741	C74	0.386520	0.821980	0.678020
C751	C75	0.930820	0.296450	0.703550
C761	C76	0.886520	0.321980	0.678020
C771	C77	0.569180	0.703550	0.203550
C781	C78	0.613480	0.678020	0.178020
C791	C79	0.069180	0.703550	0.703550
C801	C80	0.113480	0.678020	0.678020
C811	C81	0.703550	0.203550	0.569180
C821	C82	0.678020	0.178020	0.613480
C831	C83	0.703550	0.703550	0.069180
C841	C84	0.678020	0.678020	0.113480
C851	C85	0.296450	0.203550	0.430820
C861	C86	0.321980	0.178020	0.386520
C871	C87	0.296450	0.703550	0.930820
C881	C88	0.321980	0.678020	0.886520
C891	C89	0.796450	0.703550	0.430820
C901	C90	0.821980	0.678020	0.386520
C911	C91	0.296450	0.796450	0.569180
C921	C92	0.321980	0.821980	0.613480
C931	C93	0.296450	0.296450	0.069180
C941	C94	0.321980	0.321980	0.113480
C951	C95	0.796450	0.796450	0.069180
C961	C96	0.821980	0.821980	0.113480
C971	C97	0.703550	0.796450	0.430820
C981	C98	0.678020	0.821980	0.386520
C991	C99	0.703550	0.296450	0.930820
C1001	C100	0.678020	0.321980	0.886520
C1011	C101	0.203550	0.430820	0.296450
C1021	C102	0.178020	0.386520	0.321980
C1031	C103	0.203550	0.930820	0.796450
C1041	C104	0.178020	0.886520	0.821980
C1051	C105	0.703550	0.430820	0.796450
C1061	C106	0.678020	0.386520	0.821980
C1071	C107	0.203550	0.569180	0.703550
C1081	C108	0.178020	0.613480	0.678020
C1091	C109	0.203550	0.069180	0.203550
C1101	C110	0.178020	0.113480	0.178020
C1111	C111	0.703550	0.069180	0.703550
C1121	C112	0.678020	0.113480	0.678020
C1131	C113	0.796450	0.430820	0.703550
C1141	C114	0.821980	0.386520	0.678020
C1151	C115	0.796450	0.930820	0.203550
C1161	C116	0.821980	0.886520	0.178020
C1171	C117	0.796450	0.569180	0.296450
C1181	C118	0.821980	0.613480	0.321980
C1191	C119	0.796450	0.069180	0.796450
C1201	C120	0.821980	0.113480	0.821980
C1211	C121	0.296450	0.569180	0.796450
C1221	C122	0.321980	0.613480	0.821980
C1231	C123	0.296450	0.069180	0.296450
C1241	C124	0.321980	0.113480	0.321980
C1251	C125	0.703550	0.930820	0.296450
C1261	C126	0.678020	0.886520	0.321980
C1271	C127	0.703550	0.569180	0.203550
C1281	C128	0.678020	0.613480	0.178020
C1291	C129	0.296450	0.430820	0.203550
C1301	C130	0.321980	0.386520	0.178020
C1311	C131	0.296450	0.930820	0.703550
C1321	C132	0.321980	0.886520	0.678020
C1331	C133	0.796450	0.296450	0.569180
C1341	C134	0.821980	0.321980	0.613480
C1351	C135	0.796450	0.203550	0.930820
C1361	C136	0.821980	0.178020	0.886520
C1371	C137	0.203550	0.703550	0.569180
C1381	C138	0.178020	0.678020	0.613480
C1391	C139	0.203550	0.203550	0.069180
C1401	C140	0.178020	0.178020	0.113480
C1411	C141	0.203550	0.296450	0.430820
C1421	C142	0.178020	0.321980	0.386520
C1431	C143	0.203550	0.796450	0.930820
C1441	C144	0.178020	0.821980	0.886520
C1451	C145	0.569180	0.796450	0.296450
C1461	C146	0.613480	0.821980	0.321980
C1471	C147	0.930820	0.796450	0.203550
C1481	C148	0.886520	0.821980	0.178020
C1491	C149	0.569180	0.203550	0.703550
C1501	C150	0.613480	0.178020	0.678020
C1511	C151	0.069180	0.203550	0.203550
C1521	C152	0.113480	0.178020	0.178020
C1531	C153	0.430820	0.203550	0.296450
C1541	C154	0.386520	0.178020	0.321980
C1551	C155	0.930820	0.203550	0.796450
C1561	C156	0.886520	0.178020	0.821980
C1571	C157	0.569180	0.296450	0.203550
C1581	C158	0.613480	0.321980	0.178020
C1591	C159	0.069180	0.296450	0.703550
C1601	C160	0.113480	0.321980	0.678020
C1611	C161	0.430820	0.703550	0.203550
C1621	C162	0.386520	0.678020	0.178020
C1631	C163	0.069180	0.703550	0.296450
C1641	C164	0.113480	0.678020	0.321980
C1651	C165	0.430820	0.296450	0.796450
C1661	C166	0.386520	0.321980	0.821980
C1671	C167	0.930820	0.296450	0.296450
C1681	C168	0.886520	0.321980	0.321980
C1691	C169	0.296450	0.796450	0.430820
C1701	C170	0.321980	0.821980	0.386520
C1711	C171	0.296450	0.296450	0.930820
C1721	C172	0.321980	0.321980	0.886520
C1731	C173	0.703550	0.296450	0.069180
C1741	C174	0.678020	0.321980	0.113480
C1751	C175	0.703550	0.203550	0.430820
C1761	C176	0.678020	0.178020	0.386520
C1771	C177	0.296450	0.203550	0.569180
C1781	C178	0.321980	0.178020	0.613480
C1791	C179	0.296450	0.703550	0.069180
C1801	C180	0.321980	0.678020	0.113480
C1811	C181	0.796450	0.069180	0.203550
C1821	C182	0.821980	0.113480	0.178020
C1831	C183	0.796450	0.430820	0.296450
C1841	C184	0.821980	0.386520	0.321980
C1851	C185	0.203550	0.569180	0.296450
C1861	C186	0.178020	0.613480	0.321980
C1871	C187	0.203550	0.069180	0.796450
C1881	C188	0.178020	0.113480	0.821980
C1891	C189	0.203550	0.430820	0.703550
C1901	C190	0.178020	0.386520	0.678020
C1911	C191	0.203550	0.930820	0.203550
C1921	C192	0.178020	0.886520	0.178020
C1931	C193	0.635010	0.364990	0.199510
H11	H1	0.620600	0.379400	0.228300
C1941	C194	0.635010	0.864990	0.699510
H21	H2	0.620600	0.879400	0.728300
C1951	C195	0.135010	0.364990	0.699510
H31	H3	0.120600	0.379400	0.728300
C1961	C196	0.135010	0.864990	0.199510
H41	H4	0.120600	0.879400	0.228300
C1971	C197	0.364990	0.635010	0.199510
H51	H5	0.379400	0.620600	0.228300
C1981	C198	0.364990	0.135010	0.699510
H61	H6	0.379400	0.120600	0.728300
C1991	C199	0.864990	0.635010	0.699510
H71	H7	0.879400	0.620600	0.728300
C2001	C200	0.864990	0.135010	0.199510
H81	H8	0.879400	0.120600	0.228300
C2011	C201	0.364990	0.364990	0.800490
H91	H9	0.379400	0.379400	0.771700
C2021	C202	0.364990	0.864990	0.300490
H101	H10	0.379400	0.879400	0.271700
C2031	C203	0.864990	0.364990	0.300490
H111	H11	0.879400	0.379400	0.271700
C2041	C204	0.864990	0.864990	0.800490
H121	H12	0.879400	0.879400	0.771700
C2051	C205	0.635010	0.635010	0.800490
H131	H13	0.620600	0.620600	0.771700
C2061	C206	0.635010	0.135010	0.300490
H141	H14	0.620600	0.120600	0.271700
C2071	C207	0.135010	0.635010	0.300490
H151	H15	0.120600	0.620600	0.271700
C2081	C208	0.135010	0.135010	0.800490
H161	H16	0.120600	0.120600	0.771700
C2091	C209	0.199510	0.635010	0.364990
H171	H17	0.228300	0.620600	0.379400
C2101	C210	0.199510	0.135010	0.864990
H181	H18	0.228300	0.120600	0.879400
C2111	C211	0.699510	0.635010	0.864990
H191	H19	0.728300	0.620600	0.879400
C2121	C212	0.699510	0.135010	0.364990
H201	H20	0.728300	0.120600	0.379400
C2131	C213	0.199510	0.364990	0.635010
H211	H21	0.228300	0.379400	0.620600
C2141	C214	0.199510	0.864990	0.135010
H221	H22	0.228300	0.879400	0.120600
C2151	C215	0.699510	0.364990	0.135010
H231	H23	0.728300	0.379400	0.120600
C2161	C216	0.699510	0.864990	0.635010
H241	H24	0.728300	0.879400	0.620600
C2171	C217	0.800490	0.364990	0.364990
H251	H25	0.771700	0.379400	0.379400
C2181	C218	0.800490	0.864990	0.864990
H261	H26	0.771700	0.879400	0.879400
C2191	C219	0.300490	0.364990	0.864990
H271	H27	0.271700	0.379400	0.879400
C2201	C220	0.300490	0.864990	0.364990
H281	H28	0.271700	0.879400	0.379400
C2211	C221	0.800490	0.635010	0.635010
H291	H29	0.771700	0.620600	0.620600
C2221	C222	0.800490	0.135010	0.135010
H301	H30	0.771700	0.120600	0.120600
C2231	C223	0.300490	0.635010	0.135010
H311	H31	0.271700	0.620600	0.120600
C2241	C224	0.300490	0.135010	0.635010
H321	H32	0.271700	0.120600	0.620600
C2251	C225	0.364990	0.199510	0.635010
H331	H33	0.379400	0.228300	0.620600
C2261	C226	0.364990	0.699510	0.135010
H341	H34	0.379400	0.728300	0.120600
C2271	C227	0.864990	0.199510	0.135010
H351	H35	0.879400	0.228300	0.120600
C2281	C228	0.864990	0.699510	0.635010
H361	H36	0.879400	0.728300	0.620600
C2291	C229	0.635010	0.199510	0.364990
H371	H37	0.620600	0.228300	0.379400
C2301	C230	0.635010	0.699510	0.864990
H381	H38	0.620600	0.728300	0.879400
C2311	C231	0.135010	0.199510	0.864990
H391	H39	0.120600	0.228300	0.879400
C2321	C232	0.135010	0.699510	0.364990
H401	H40	0.120600	0.728300	0.379400
C2331	C233	0.364990	0.800490	0.364990
H411	H41	0.379400	0.771700	0.379400
C2341	C234	0.364990	0.300490	0.864990
H421	H42	0.379400	0.271700	0.879400
C2351	C235	0.864990	0.800490	0.864990
H431	H43	0.879400	0.771700	0.879400
C2361	C236	0.864990	0.300490	0.364990
H441	H44	0.879400	0.271700	0.379400
C2371	C237	0.635010	0.800490	0.635010
H451	H45	0.620600	0.771700	0.620600
C2381	C238	0.635010	0.300490	0.135010
H461	H46	0.620600	0.271700	0.120600
C2391	C239	0.135010	0.800490	0.135010
H471	H47	0.120600	0.771700	0.120600
C2401	C240	0.135010	0.300490	0.635010
H481	H48	0.120600	0.271700	0.620600
C2411	C241	0.364990	0.635010	0.800490
H491	H49	0.379400	0.620600	0.771700
C2421	C242	0.364990	0.135010	0.300490
H501	H50	0.379400	0.120600	0.271700
C2431	C243	0.864990	0.635010	0.300490
H511	H51	0.879400	0.620600	0.271700
C2441	C244	0.864990	0.135010	0.800490
H521	H52	0.879400	0.120600	0.771700
C2451	C245	0.635010	0.364990	0.800490
H531	H53	0.620600	0.379400	0.771700
C2461	C246	0.635010	0.864990	0.300490
H541	H54	0.620600	0.879400	0.271700
C2471	C247	0.135010	0.364990	0.300490
H551	H55	0.120600	0.379400	0.271700
C2481	C248	0.135010	0.864990	0.800490
H561	H56	0.120600	0.879400	0.771700
C2491	C249	0.364990	0.364990	0.199510
H571	H57	0.379400	0.379400	0.228300
C2501	C250	0.364990	0.864990	0.699510
H581	H58	0.379400	0.879400	0.728300
C2511	C251	0.864990	0.364990	0.699510
H591	H59	0.879400	0.379400	0.728300
C2521	C252	0.864990	0.864990	0.199510
H601	H60	0.879400	0.879400	0.228300
C2531	C253	0.635010	0.635010	0.199510
H611	H61	0.620600	0.620600	0.228300
C2541	C254	0.635010	0.135010	0.699510
H621	H62	0.620600	0.120600	0.728300
C2551	C255	0.135010	0.635010	0.699510
H631	H63	0.120600	0.620600	0.728300
C2561	C256	0.135010	0.135010	0.199510
H641	H64	0.120600	0.120600	0.228300
C2571	C257	0.635010	0.199510	0.635010
H651	H65	0.620600	0.228300	0.620600
C2581	C258	0.635010	0.699510	0.135010
H661	H66	0.620600	0.728300	0.120600
C2591	C259	0.135010	0.199510	0.135010
H671	H67	0.120600	0.228300	0.120600
C2601	C260	0.135010	0.699510	0.635010
H681	H68	0.120600	0.728300	0.620600
C2611	C261	0.364990	0.199510	0.364990
H691	H69	0.379400	0.228300	0.379400
C2621	C262	0.364990	0.699510	0.864990
H701	H70	0.379400	0.728300	0.879400
C2631	C263	0.864990	0.199510	0.864990
H711	H71	0.879400	0.228300	0.879400
C2641	C264	0.864990	0.699510	0.364990
H721	H72	0.879400	0.728300	0.379400
C2651	C265	0.364990	0.800490	0.635010
H731	H73	0.379400	0.771700	0.620600
C2661	C266	0.364990	0.300490	0.135010
H741	H74	0.379400	0.271700	0.120600
C2671	C267	0.864990	0.800490	0.135010
H751	H75	0.879400	0.771700	0.120600
C2681	C268	0.864990	0.300490	0.635010
H761	H76	0.879400	0.271700	0.620600
C2691	C269	0.635010	0.800490	0.364990
H771	H77	0.620600	0.771700	0.379400
C2701	C270	0.635010	0.300490	0.864990
H781	H78	0.620600	0.271700	0.879400
C2711	C271	0.135010	0.800490	0.864990
H791	H79	0.120600	0.771700	0.879400
C2721	C272	0.135010	0.300490	0.364990
H801	H80	0.120600	0.271700	0.379400
C2731	C273	0.199510	0.364990	0.364990
H811	H81	0.228300	0.379400	0.379400
C2741	C274	0.199510	0.864990	0.864990
H821	H82	0.228300	0.879400	0.879400
C2751	C275	0.699510	0.364990	0.864990
H831	H83	0.728300	0.379400	0.879400
C2761	C276	0.699510	0.864990	0.364990
H841	H84	0.728300	0.879400	0.379400
C2771	C277	0.199510	0.635010	0.635010
H851	H85	0.228300	0.620600	0.620600
C2781	C278	0.199510	0.135010	0.135010
H861	H86	0.228300	0.120600	0.120600
C2791	C279	0.699510	0.635010	0.135010
H871	H87	0.728300	0.620600	0.120600
C2801	C280	0.699510	0.135010	0.635010
H881	H88	0.728300	0.120600	0.620600
C2811	C281	0.800490	0.364990	0.635010
H891	H89	0.771700	0.379400	0.620600
C2821	C282	0.800490	0.864990	0.135010
H901	H90	0.771700	0.879400	0.120600
C2831	C283	0.300490	0.364990	0.135010
H911	H91	0.271700	0.379400	0.120600
C2841	C284	0.300490	0.864990	0.635010
H921	H92	0.271700	0.879400	0.620600
C2851	C285	0.800490	0.635010	0.364990
H931	H93	0.771700	0.620600	0.379400
C2861	C286	0.800490	0.135010	0.864990
H941	H94	0.771700	0.120600	0.879400
C2871	C287	0.300490	0.635010	0.864990
H951	H95	0.271700	0.620600	0.879400
C2881	C288	0.300490	0.135010	0.364990
H961	H96	0.271700	0.120600	0.379400
