data_UXUPIN_clean_PM
_symmetry_space_group_name_H-M	'P1'
_cell_length_a	18.272500
_cell_length_b	22.168000
_cell_length_c	22.168000
_cell_angle_alpha	80.220600
_cell_angle_beta	65.660900
_cell_angle_gamma	65.661000
_symmetry_Int_Tables_number 1

loop_
_symmetry_equiv_pos_as_xyz
'x,y,z'

loop_
_atom_site_label
_atom_site_type_symbol
_atom_site_fract_x
_atom_site_fract_y
_atom_site_fract_z
Cu11	Cu1	0.258850	0.991150	0.491150
Cu21	Cu2	0.241150	0.508850	0.008850
Cu31	Cu3	0.750000	0.491150	0.508850
Cu41	Cu4	0.250000	0.008850	0.991150
H11	H1	0.223100	0.921700	0.620900
H21	H2	0.217600	0.927500	0.725500
H31	H3	0.277400	0.087900	0.668500
H41	H4	0.281400	0.079100	0.565300
H51	H5	0.342400	0.045100	0.852100
H61	H6	0.346600	0.042300	0.747500
H71	H7	0.147400	0.983900	0.826500
H81	H8	0.145100	0.990100	0.929500
H91	H9	0.265700	0.578300	0.879100
H101	H10	0.370600	0.572500	0.774500
H111	H11	0.533800	0.412100	0.831500
H121	H12	0.425800	0.420900	0.934700
H131	H13	0.739600	0.454900	0.647900
H141	H14	0.636400	0.457700	0.752500
H151	H15	0.457800	0.516100	0.673500
H161	H16	0.564700	0.509900	0.570500
H171	H17	0.234300	0.120900	0.421700
H181	H18	0.129400	0.225500	0.427500
H191	H19	0.966200	0.168500	0.587900
H201	H20	0.074200	0.065300	0.579100
H211	H21	0.760400	0.352100	0.545100
H221	H22	0.863600	0.247500	0.542300
H231	H23	0.042200	0.326500	0.483900
H241	H24	0.935300	0.429500	0.490100
H251	H25	0.276900	0.379100	0.078300
H261	H26	0.282400	0.274500	0.072500
H271	H27	0.222600	0.331500	0.912100
H281	H28	0.218600	0.434700	0.920900
H291	H29	0.157600	0.147900	0.954900
H301	H30	0.153400	0.252500	0.957700
H311	H31	0.352600	0.173500	0.016100
H321	H32	0.354900	0.070500	0.009900
H331	H33	0.656000	0.620900	0.578300
H341	H34	0.556900	0.725500	0.572500
H351	H35	0.554100	0.668500	0.412100
H361	H36	0.653300	0.565300	0.420900
H371	H37	0.305500	0.852100	0.454900
H381	H38	0.405900	0.747500	0.457700
H391	H39	0.526100	0.826500	0.516100
H401	H40	0.425400	0.929500	0.509900
H411	H41	0.355200	0.879100	0.921700
H421	H42	0.354900	0.774500	0.927500
H431	H43	0.134700	0.831500	0.087900
H441	H44	0.139500	0.934700	0.079100
H451	H45	0.112500	0.647900	0.045100
H461	H46	0.111100	0.752500	0.042300
H471	H47	0.368700	0.673500	0.983900
H481	H48	0.364800	0.570500	0.990100
H491	H49	0.144800	0.078300	0.120900
H501	H50	0.145100	0.072500	0.225500
H511	H51	0.365300	0.912100	0.168500
H521	H52	0.360500	0.920900	0.065300
H531	H53	0.387500	0.954900	0.352100
H541	H54	0.388900	0.957700	0.247500
H551	H55	0.131300	0.016100	0.326500
H561	H56	0.135200	0.009900	0.429500
H571	H57	0.844000	0.421700	0.379100
H581	H58	0.943100	0.427500	0.274500
H591	H59	0.945900	0.587900	0.331500
H601	H60	0.846700	0.579100	0.434700
H611	H61	0.194500	0.545100	0.147900
H621	H62	0.094100	0.542300	0.252500
H631	H63	0.973900	0.483900	0.173500
H641	H64	0.074600	0.490100	0.070500
C11	C1	0.233790	0.955630	0.630790
C21	C2	0.230930	0.958590	0.693550
C31	C3	0.248300	0.009030	0.708370
C41	C4	0.266280	0.053570	0.659870
C51	C5	0.268290	0.048390	0.597830
C61	C6	0.303010	0.032190	0.846790
C71	C7	0.305630	0.030890	0.783850
C81	C8	0.246660	0.012400	0.775480
C91	C9	0.187660	0.996640	0.830640
C101	C10	0.187250	0.999510	0.892390
C111	C11	0.320210	0.544370	0.869210
C121	C12	0.383070	0.541410	0.806450
C131	C13	0.465700	0.490970	0.791630
C141	C14	0.479720	0.446430	0.840130
C151	C15	0.414510	0.451610	0.902170
C161	C16	0.681990	0.467810	0.653210
C171	C17	0.620370	0.469110	0.716150
C181	C18	0.534540	0.487600	0.724520
C191	C19	0.514940	0.503360	0.669360
C201	C20	0.579150	0.500490	0.607610
C211	C21	0.179790	0.130790	0.455630
C221	C22	0.116930	0.193550	0.458590
C231	C23	0.034300	0.208370	0.509030
C241	C24	0.020280	0.159870	0.553570
C251	C25	0.085490	0.097830	0.548390
C261	C26	0.818010	0.346790	0.532190
C271	C27	0.879630	0.283850	0.530890
C281	C28	0.965460	0.275480	0.512400
C291	C29	0.985060	0.330640	0.496640
C301	C30	0.920850	0.392390	0.499510
C311	C31	0.266210	0.369210	0.044370
C321	C32	0.269070	0.306450	0.041410
C331	C33	0.251700	0.291630	0.990970
C341	C34	0.233720	0.340130	0.946430
C351	C35	0.231710	0.402170	0.951610
C361	C36	0.196990	0.153210	0.967810
C371	C37	0.194370	0.216150	0.969110
C381	C38	0.253340	0.224520	0.987600
C391	C39	0.312340	0.169360	0.003360
C401	C40	0.312750	0.107610	0.000490
C411	C41	0.635420	0.630790	0.544370
C421	C42	0.575520	0.693550	0.541410
C431	C43	0.543330	0.708370	0.490970
C441	C44	0.573850	0.659870	0.446430
C451	C45	0.633880	0.597830	0.451610
C461	C46	0.350200	0.846790	0.467810
C471	C47	0.410520	0.783850	0.469110
C481	C48	0.477860	0.775480	0.487600
C491	C49	0.481700	0.830640	0.503360
C501	C50	0.420360	0.892390	0.500490
C511	C51	0.310580	0.869210	0.955630
C521	C52	0.310480	0.806450	0.958590
C531	C53	0.242670	0.791630	0.009030
C541	C54	0.180150	0.840130	0.053570
C551	C55	0.183320	0.902170	0.048390
C561	C56	0.164800	0.653210	0.032190
C571	C57	0.163480	0.716150	0.030890
C581	C58	0.240940	0.724520	0.012400
C591	C59	0.315700	0.669360	0.996640
C601	C60	0.313240	0.607610	0.999510
C611	C61	0.189420	0.044370	0.130790
C621	C62	0.189520	0.041410	0.193550
C631	C63	0.257330	0.990970	0.208370
C641	C64	0.319850	0.946430	0.159870
C651	C65	0.316680	0.951610	0.097830
C661	C66	0.335200	0.967810	0.346790
C671	C67	0.336520	0.969110	0.283850
C681	C68	0.259060	0.987600	0.275480
C691	C69	0.184300	0.003360	0.330640
C701	C70	0.186760	0.000490	0.392390
C711	C71	0.864580	0.455630	0.369210
C721	C72	0.924480	0.458590	0.306450
C731	C73	0.956670	0.509030	0.291630
C741	C74	0.926150	0.553570	0.340130
C751	C75	0.866120	0.548390	0.402170
C761	C76	0.149800	0.532190	0.153210
C771	C77	0.089480	0.530890	0.216150
C781	C78	0.022140	0.512400	0.224520
C791	C79	0.018300	0.496640	0.169360
C801	C80	0.079640	0.499510	0.107610
N11	N1	0.251600	0.000110	0.583490
N21	N2	0.245710	0.015510	0.900470
N31	N3	0.335200	0.499890	0.916510
N41	N4	0.661690	0.484490	0.599530
N51	N5	0.164800	0.083490	0.500110
N61	N6	0.838310	0.400470	0.515510
N71	N7	0.248400	0.416510	0.999890
N81	N8	0.254290	0.099530	0.984490
N91	N9	0.664910	0.583490	0.499890
N101	N10	0.353820	0.900470	0.484490
N111	N11	0.248290	0.916510	0.000110
N121	N12	0.238780	0.599530	0.015510
N131	N13	0.251710	0.999890	0.083490
N141	N14	0.261220	0.984490	0.400470
N151	N15	0.835090	0.500110	0.416510
N161	N16	0.146180	0.515510	0.099530
Cu51	Cu5	0.250000	0.508850	0.491150
Cu61	Cu6	0.750000	0.991150	0.008850
Cu71	Cu7	0.741150	0.008850	0.508850
Cu81	Cu8	0.758850	0.491150	0.991150
H651	H65	0.344000	0.379100	0.421700
H661	H66	0.443100	0.274500	0.427500
H671	H67	0.445900	0.331500	0.587900
H681	H68	0.346700	0.434700	0.579100
H691	H69	0.694500	0.147900	0.545100
H701	H70	0.594100	0.252500	0.542300
H711	H71	0.473900	0.173500	0.483900
H721	H72	0.574600	0.070500	0.490100
H731	H73	0.644800	0.120900	0.078300
H741	H74	0.645100	0.225500	0.072500
H751	H75	0.865300	0.168500	0.912100
H761	H76	0.860500	0.065300	0.920900
H771	H77	0.887500	0.352100	0.954900
H781	H78	0.888900	0.247500	0.957700
H791	H79	0.631300	0.326500	0.016100
H801	H80	0.635200	0.429500	0.009900
H811	H81	0.855200	0.921700	0.879100
H821	H82	0.854900	0.927500	0.774500
H831	H83	0.634700	0.087900	0.831500
H841	H84	0.639500	0.079100	0.934700
H851	H85	0.612500	0.045100	0.647900
H861	H86	0.611100	0.042300	0.752500
H871	H87	0.868700	0.983900	0.673500
H881	H88	0.864800	0.990100	0.570500
H891	H89	0.156000	0.578300	0.620900
H901	H90	0.056900	0.572500	0.725500
H911	H91	0.054100	0.412100	0.668500
H921	H92	0.153300	0.420900	0.565300
H931	H93	0.805500	0.454900	0.852100
H941	H94	0.905900	0.457700	0.747500
H951	H95	0.026100	0.516100	0.826500
H961	H96	0.925400	0.509900	0.929500
H971	H97	0.776900	0.078300	0.379100
H981	H98	0.782400	0.072500	0.274500
H991	H99	0.722600	0.912100	0.331500
H1001	H100	0.718600	0.920900	0.434700
H1011	H101	0.657600	0.954900	0.147900
H1021	H102	0.653400	0.957700	0.252500
H1031	H103	0.852600	0.016100	0.173500
H1041	H104	0.854900	0.009900	0.070500
H1051	H105	0.734300	0.421700	0.120900
H1061	H106	0.629400	0.427500	0.225500
H1071	H107	0.466200	0.587900	0.168500
H1081	H108	0.574200	0.579100	0.065300
H1091	H109	0.260400	0.545100	0.352100
H1101	H110	0.363600	0.542300	0.247500
H1111	H111	0.542200	0.483900	0.326500
H1121	H112	0.435300	0.490100	0.429500
H1131	H113	0.765700	0.879100	0.578300
H1141	H114	0.870600	0.774500	0.572500
H1151	H115	0.033800	0.831500	0.412100
H1161	H116	0.925800	0.934700	0.420900
H1171	H117	0.239600	0.647900	0.454900
H1181	H118	0.136400	0.752500	0.457700
H1191	H119	0.957800	0.673500	0.516100
H1201	H120	0.064700	0.570500	0.509900
H1211	H121	0.723100	0.620900	0.921700
H1221	H122	0.717600	0.725500	0.927500
H1231	H123	0.777400	0.668500	0.087900
H1241	H124	0.781400	0.565300	0.079100
H1251	H125	0.842400	0.852100	0.045100
H1261	H126	0.846600	0.747500	0.042300
H1271	H127	0.647400	0.826500	0.983900
H1281	H128	0.645100	0.929500	0.990100
C811	C81	0.364580	0.369210	0.455630
C821	C82	0.424480	0.306450	0.458590
C831	C83	0.456670	0.291630	0.509030
C841	C84	0.426150	0.340130	0.553570
C851	C85	0.366120	0.402170	0.548390
C861	C86	0.649800	0.153210	0.532190
C871	C87	0.589480	0.216150	0.530890
C881	C88	0.522140	0.224520	0.512400
C891	C89	0.518300	0.169360	0.496640
C901	C90	0.579640	0.107610	0.499510
C911	C91	0.689420	0.130790	0.044370
C921	C92	0.689520	0.193550	0.041410
C931	C93	0.757330	0.208370	0.990970
C941	C94	0.819850	0.159870	0.946430
C951	C95	0.816680	0.097830	0.951610
C961	C96	0.835200	0.346790	0.967810
C971	C97	0.836520	0.283850	0.969110
C981	C98	0.759060	0.275480	0.987600
C991	C99	0.684300	0.330640	0.003360
C1001	C100	0.686760	0.392390	0.000490
C1011	C101	0.810580	0.955630	0.869210
C1021	C102	0.810480	0.958590	0.806450
C1031	C103	0.742670	0.009030	0.791630
C1041	C104	0.680150	0.053570	0.840130
C1051	C105	0.683320	0.048390	0.902170
C1061	C106	0.664800	0.032190	0.653210
C1071	C107	0.663480	0.030890	0.716150
C1081	C108	0.740940	0.012400	0.724520
C1091	C109	0.815700	0.996640	0.669360
C1101	C110	0.813240	0.999510	0.607610
C1111	C111	0.135420	0.544370	0.630790
C1121	C112	0.075520	0.541410	0.693550
C1131	C113	0.043330	0.490970	0.708370
C1141	C114	0.073850	0.446430	0.659870
C1151	C115	0.133880	0.451610	0.597830
C1161	C116	0.850200	0.467810	0.846790
C1171	C117	0.910520	0.469110	0.783850
C1181	C118	0.977860	0.487600	0.775480
C1191	C119	0.981700	0.503360	0.830640
C1201	C120	0.920360	0.500490	0.892390
C1211	C121	0.766210	0.044370	0.369210
C1221	C122	0.769070	0.041410	0.306450
C1231	C123	0.751700	0.990970	0.291630
C1241	C124	0.733720	0.946430	0.340130
C1251	C125	0.731710	0.951610	0.402170
C1261	C126	0.696990	0.967810	0.153210
C1271	C127	0.694370	0.969110	0.216150
C1281	C128	0.753340	0.987600	0.224520
C1291	C129	0.812340	0.003360	0.169360
C1301	C130	0.812750	0.000490	0.107610
C1311	C131	0.679790	0.455630	0.130790
C1321	C132	0.616930	0.458590	0.193550
C1331	C133	0.534300	0.509030	0.208370
C1341	C134	0.520280	0.553570	0.159870
C1351	C135	0.585490	0.548390	0.097830
C1361	C136	0.318010	0.532190	0.346790
C1371	C137	0.379630	0.530890	0.283850
C1381	C138	0.465460	0.512400	0.275480
C1391	C139	0.485060	0.496640	0.330640
C1401	C140	0.420850	0.499510	0.392390
C1411	C141	0.820210	0.869210	0.544370
C1421	C142	0.883070	0.806450	0.541410
C1431	C143	0.965700	0.791630	0.490970
C1441	C144	0.979720	0.840130	0.446430
C1451	C145	0.914510	0.902170	0.451610
C1461	C146	0.181990	0.653210	0.467810
C1471	C147	0.120370	0.716150	0.469110
C1481	C148	0.034540	0.724520	0.487600
C1491	C149	0.014940	0.669360	0.503360
C1501	C150	0.079150	0.607610	0.500490
C1511	C151	0.733790	0.630790	0.955630
C1521	C152	0.730930	0.693550	0.958590
C1531	C153	0.748300	0.708370	0.009030
C1541	C154	0.766280	0.659870	0.053570
C1551	C155	0.768290	0.597830	0.048390
C1561	C156	0.803010	0.846790	0.032190
C1571	C157	0.805630	0.783850	0.030890
C1581	C158	0.746660	0.775480	0.012400
C1591	C159	0.687660	0.830640	0.996640
C1601	C160	0.687250	0.892390	0.999510
N171	N17	0.335090	0.416510	0.500110
N181	N18	0.646180	0.099530	0.515510
N191	N19	0.751710	0.083490	0.999890
N201	N20	0.761220	0.400470	0.984490
N211	N21	0.748290	0.000110	0.916510
N221	N22	0.738780	0.015510	0.599530
N231	N23	0.164910	0.499890	0.583490
N241	N24	0.853820	0.484490	0.900470
N251	N25	0.748400	0.999890	0.416510
N261	N26	0.754290	0.984490	0.099530
N271	N27	0.664800	0.500110	0.083490
N281	N28	0.338310	0.515510	0.400470
N291	N29	0.835200	0.916510	0.499890
N301	N30	0.161690	0.599530	0.484490
N311	N31	0.751600	0.583490	0.000110
N321	N32	0.745710	0.900470	0.015510
