data_UXUPEK_clean_PM
_symmetry_space_group_name_H-M	'P1'
_cell_length_a	14.836000
_cell_length_b	6.684400
_cell_length_c	4.363000
_cell_angle_alpha	90.000000
_cell_angle_beta	93.280000
_cell_angle_gamma	90.000000
_symmetry_Int_Tables_number 1

loop_
_symmetry_equiv_pos_as_xyz
'x,y,z'

loop_
_atom_site_label
_atom_site_type_symbol
_atom_site_fract_x
_atom_site_fract_y
_atom_site_fract_z
O11	O1	0.158800	0.189700	0.785200
H11	H1	0.034300	0.122700	0.228000
O21	O2	0.658800	0.689700	0.785200
H21	H2	0.534300	0.622700	0.228000
O31	O3	0.841200	0.189700	0.214800
H31	H3	0.965700	0.122700	0.772000
O41	O4	0.341200	0.689700	0.214800
H41	H4	0.465700	0.622700	0.772000
O51	O5	0.841200	0.810300	0.214800
H51	H5	0.965700	0.877300	0.772000
O61	O6	0.341200	0.310300	0.214800
H61	H6	0.465700	0.377300	0.772000
O71	O7	0.158800	0.810300	0.785200
H71	H7	0.034300	0.877300	0.228000
O81	O8	0.658800	0.310300	0.785200
H81	H8	0.534300	0.377300	0.228000
Cu11	Cu1	0.250000	0.250000	0.500000
Cu21	Cu2	0.750000	0.250000	0.500000
Cu31	Cu3	0.750000	0.750000	0.500000
Cu41	Cu4	0.250000	0.750000	0.500000
P11	P1	0.149300	0.000000	0.971700
O91	O9	0.217400	0.000000	0.256700
C11	C1	0.038700	0.000000	0.120500
P21	P2	0.649300	0.500000	0.971700
O101	O10	0.717400	0.500000	0.256700
C21	C2	0.538700	0.500000	0.120500
P31	P3	0.850700	0.000000	0.028300
O111	O11	0.782600	0.000000	0.743300
C31	C3	0.961300	0.000000	0.879500
P41	P4	0.350700	0.500000	0.028300
O121	O12	0.282600	0.500000	0.743300
C41	C4	0.461300	0.500000	0.879500
