data_UXUYUI_clean_PM
_symmetry_space_group_name_H-M	'P1'
_cell_length_a	10.990900
_cell_length_b	10.990900
_cell_length_c	10.991000
_cell_angle_alpha	90.000000
_cell_angle_beta	90.000000
_cell_angle_gamma	90.000000
_symmetry_Int_Tables_number 1

loop_
_symmetry_equiv_pos_as_xyz
'x,y,z'

loop_
_atom_site_label
_atom_site_type_symbol
_atom_site_fract_x
_atom_site_fract_y
_atom_site_fract_z
Li11	Li1	0.918400	0.589200	0.836400
Li21	Li2	0.081600	0.410800	0.836400
Li31	Li3	0.589200	0.081600	0.163600
Li41	Li4	0.410800	0.918400	0.163600
Li51	Li5	0.081600	0.589200	0.663600
Li61	Li6	0.918400	0.410800	0.663600
Li71	Li7	0.410800	0.081600	0.336400
Li81	Li8	0.589200	0.918400	0.336400
H11	H1	0.206600	0.543200	0.040300
H21	H2	0.132300	0.818700	0.826600
H31	H3	0.320900	0.670400	0.149700
H41	H4	0.249500	0.935500	0.945000
H51	H5	0.793400	0.456800	0.040300
H61	H6	0.867700	0.181300	0.826600
H71	H7	0.679100	0.329600	0.149700
H81	H8	0.750500	0.064500	0.945000
H91	H9	0.543200	0.793400	0.959700
H101	H10	0.818700	0.867700	0.173400
H111	H11	0.670400	0.679100	0.850300
H121	H12	0.935500	0.750500	0.055000
H131	H13	0.456800	0.206600	0.959700
H141	H14	0.181300	0.132300	0.173400
H151	H15	0.329600	0.320900	0.850300
H161	H16	0.064500	0.249500	0.055000
H171	H17	0.793400	0.543200	0.459700
H181	H18	0.867700	0.818700	0.673400
H191	H19	0.679100	0.670400	0.350300
H201	H20	0.750500	0.935500	0.555000
H211	H21	0.206600	0.456800	0.459700
H221	H22	0.132300	0.181300	0.673400
H231	H23	0.320900	0.329600	0.350300
H241	H24	0.249500	0.064500	0.555000
H251	H25	0.456800	0.793400	0.540300
H261	H26	0.181300	0.867700	0.326600
H271	H27	0.329600	0.679100	0.649700
H281	H28	0.064500	0.750500	0.445000
H291	H29	0.543200	0.206600	0.540300
H301	H30	0.818700	0.132300	0.326600
H311	H31	0.670400	0.320900	0.649700
H321	H32	0.935500	0.249500	0.445000
C11	C1	0.215500	0.623400	0.015000
C21	C2	0.172900	0.783300	0.891800
C31	C3	0.282200	0.702500	0.081700
C41	C4	0.242300	0.853800	0.965900
C51	C5	0.162100	0.662000	0.911600
C61	C6	0.784500	0.376600	0.015000
C71	C7	0.827100	0.216700	0.891800
C81	C8	0.717800	0.297500	0.081700
C91	C9	0.757700	0.146200	0.965900
C101	C10	0.837900	0.338000	0.911600
C111	C11	0.623400	0.784500	0.985000
C121	C12	0.783300	0.827100	0.108200
C131	C13	0.702500	0.717800	0.918300
C141	C14	0.853800	0.757700	0.034100
C151	C15	0.662000	0.837900	0.088400
C161	C16	0.376600	0.215500	0.985000
C171	C17	0.216700	0.172900	0.108200
C181	C18	0.297500	0.282200	0.918300
C191	C19	0.146200	0.242300	0.034100
C201	C20	0.338000	0.162100	0.088400
C211	C21	0.784500	0.623400	0.485000
C221	C22	0.827100	0.783300	0.608200
C231	C23	0.717800	0.702500	0.418300
C241	C24	0.757700	0.853800	0.534100
C251	C25	0.837900	0.662000	0.588400
C261	C26	0.215500	0.376600	0.485000
C271	C27	0.172900	0.216700	0.608200
C281	C28	0.282200	0.297500	0.418300
C291	C29	0.242300	0.146200	0.534100
C301	C30	0.162100	0.338000	0.588400
C311	C31	0.376600	0.784500	0.515000
C321	C32	0.216700	0.827100	0.391800
C331	C33	0.297500	0.717800	0.581700
C341	C34	0.146200	0.757700	0.465900
C351	C35	0.338000	0.837900	0.411600
C361	C36	0.623400	0.215500	0.515000
C371	C37	0.783300	0.172900	0.391800
C381	C38	0.702500	0.282200	0.581700
C391	C39	0.853800	0.242300	0.465900
C401	C40	0.662000	0.162100	0.411600
N11	N1	0.298800	0.819200	0.061600
N21	N2	0.701200	0.180800	0.061600
N31	N3	0.819200	0.701200	0.938400
N41	N4	0.180800	0.298800	0.938400
N51	N5	0.701200	0.819200	0.438400
N61	N6	0.298800	0.180800	0.438400
N71	N7	0.180800	0.701200	0.561600
N81	N8	0.819200	0.298800	0.561600
O11	O1	0.096300	0.589400	0.841400
O21	O2	0.903700	0.410600	0.841400
O31	O3	0.589400	0.903700	0.158600
O41	O4	0.410600	0.096300	0.158600
O51	O5	0.903700	0.589400	0.658600
O61	O6	0.096300	0.410600	0.658600
O71	O7	0.410600	0.903700	0.341400
O81	O8	0.589400	0.096300	0.341400
