data_UYOYUD_clean_PM
_symmetry_space_group_name_H-M	'P1'
_cell_length_a	8.413000
_cell_length_b	11.830600
_cell_length_c	8.946800
_cell_angle_alpha	90.000000
_cell_angle_beta	90.000000
_cell_angle_gamma	90.000000
_symmetry_Int_Tables_number 1

loop_
_symmetry_equiv_pos_as_xyz
'x,y,z'

loop_
_atom_site_label
_atom_site_type_symbol
_atom_site_fract_x
_atom_site_fract_y
_atom_site_fract_z
O11	O1	0.438780	0.192860	0.112070
O21	O2	0.593500	0.182120	0.913420
O31	O3	0.244120	0.406390	0.130900
C11	C1	0.477100	0.220700	0.982900
H11	H1	0.414300	0.274100	0.934600
O41	O4	0.061220	0.807140	0.112070
O51	O5	0.906500	0.817880	0.913420
O61	O6	0.255880	0.593610	0.130900
C21	C2	0.022900	0.779300	0.982900
H21	H2	0.085700	0.725900	0.934600
O71	O7	0.061220	0.692860	0.387930
O81	O8	0.906500	0.682120	0.586580
O91	O9	0.255880	0.906390	0.369100
C31	C3	0.022900	0.720700	0.517100
H31	H3	0.085700	0.774100	0.565400
O101	O10	0.438780	0.307140	0.387930
O111	O11	0.593500	0.317880	0.586580
O121	O12	0.244120	0.093610	0.369100
C41	C4	0.477100	0.279300	0.517100
H41	H4	0.414300	0.225900	0.565400
O131	O13	0.561220	0.807140	0.887930
O141	O14	0.406500	0.817880	0.086580
O151	O15	0.755880	0.593610	0.869100
C51	C5	0.522900	0.779300	0.017100
H51	H5	0.585700	0.725900	0.065400
O161	O16	0.938780	0.192860	0.887930
O171	O17	0.093500	0.182120	0.086580
O181	O18	0.744120	0.406390	0.869100
C61	C6	0.977100	0.220700	0.017100
H61	H6	0.914300	0.274100	0.065400
O191	O19	0.938780	0.307140	0.612070
O201	O20	0.093500	0.317880	0.413420
O211	O21	0.744120	0.093610	0.630900
C71	C7	0.977100	0.279300	0.482900
H71	H7	0.914300	0.225900	0.434600
O221	O22	0.561220	0.692860	0.612070
O231	O23	0.406500	0.682120	0.413420
O241	O24	0.755880	0.906390	0.630900
C81	C8	0.522900	0.720700	0.482900
H81	H8	0.585700	0.774100	0.434600
Fe11	Fe1	0.247500	0.250000	0.250000
Fe21	Fe2	0.252500	0.750000	0.250000
Fe31	Fe3	0.752500	0.750000	0.750000
Fe41	Fe4	0.747500	0.250000	0.750000
C91	C9	0.250000	0.500000	0.192900
H91	H9	0.250000	0.500000	0.296900
C101	C10	0.250000	0.000000	0.307100
H101	H10	0.250000	0.000000	0.203100
C111	C11	0.750000	0.500000	0.807100
H111	H11	0.750000	0.500000	0.703100
C121	C12	0.750000	0.000000	0.692900
H121	H12	0.750000	0.000000	0.796900
