data_UZAFAD_clean_PM
_symmetry_space_group_name_H-M	'P1'
_cell_length_a	10.400000
_cell_length_b	11.803000
_cell_length_c	13.937000
_cell_angle_alpha	71.845000
_cell_angle_beta	71.975000
_cell_angle_gamma	85.855000
_symmetry_Int_Tables_number 1

loop_
_symmetry_equiv_pos_as_xyz
'x,y,z'

loop_
_atom_site_label
_atom_site_type_symbol
_atom_site_fract_x
_atom_site_fract_y
_atom_site_fract_z
Ni11	Ni1	0.424980	0.698080	0.255060
Ni21	Ni2	0.575020	0.301920	0.744940
Ni31	Ni3	0.000000	0.000000	0.500000
H11	H1	0.510200	0.728300	0.021500
H21	H2	0.272700	0.952000	0.143300
H31	H3	0.322400	0.030600	0.949900
H41	H4	0.513200	0.967600	0.790900
H51	H5	0.579400	0.844100	0.825400
H61	H6	0.300000	0.986500	0.774500
H71	H7	0.224300	0.887200	0.877600
H81	H8	0.233900	0.007900	0.607600
H91	H9	0.046500	0.748100	0.860300
H101	H10	0.925500	0.785800	0.729700
H111	H11	0.279100	0.678600	0.845300
H121	H12	0.332300	0.694400	0.933800
H131	H13	0.615800	0.633100	0.897400
H141	H14	0.711200	0.455800	0.851100
H151	H15	0.371600	0.511800	0.780900
H161	H16	0.447200	0.919100	0.633000
H171	H17	0.425100	0.782300	0.657100
H181	H18	0.681400	0.993300	0.611900
H191	H19	0.650200	0.655600	0.628900
H201	H20	0.888400	0.720400	0.549200
H211	H21	0.981000	0.564900	0.405400
H221	H22	0.539600	0.652000	0.489000
H231	H23	0.735500	0.755600	0.372000
H241	H24	0.737800	0.625900	0.364700
H251	H25	0.407000	0.569000	0.427000
H261	H26	0.489800	0.271700	0.978500
H271	H27	0.727300	0.048000	0.856700
H281	H28	0.677600	0.969400	0.050100
H291	H29	0.486800	0.032400	0.209100
H301	H30	0.420600	0.155900	0.174600
H311	H31	0.700000	0.013500	0.225500
H321	H32	0.775700	0.112800	0.122400
H331	H33	0.766100	0.992100	0.392400
H341	H34	0.953500	0.251900	0.139700
H351	H35	0.074500	0.214200	0.270300
H361	H36	0.720900	0.321400	0.154700
H371	H37	0.667700	0.305600	0.066200
H381	H38	0.384200	0.366900	0.102600
H391	H39	0.288800	0.544200	0.148900
H401	H40	0.628400	0.488200	0.219100
H411	H41	0.552800	0.080900	0.367000
H421	H42	0.574900	0.217700	0.342900
H431	H43	0.318600	0.006700	0.388100
H441	H44	0.349800	0.344400	0.371100
H451	H45	0.111600	0.279600	0.450800
H461	H46	0.019000	0.435100	0.594600
H471	H47	0.460400	0.348000	0.511000
H481	H48	0.264500	0.244400	0.628000
H491	H49	0.262200	0.374100	0.635300
H501	H50	0.593000	0.431000	0.573000
C11	C1	0.456300	0.793500	0.028200
C21	C2	0.326700	0.916200	0.094500
C31	C3	0.353700	0.960300	0.987400
C41	C4	0.494200	0.885000	0.834000
C51	C5	0.401500	0.828300	0.793000
C61	C6	0.272700	0.902800	0.802900
C71	C7	0.172000	0.947200	0.654000
C81	C8	0.070300	0.804700	0.793700
C91	C9	0.003900	0.826200	0.721000
C101	C10	0.358600	0.698800	0.859600
C111	C11	0.578400	0.587900	0.868200
C121	C12	0.630300	0.489600	0.842600
C131	C13	0.444700	0.519800	0.803600
C141	C14	0.467600	0.841000	0.674000
C151	C15	0.704500	0.917400	0.606600
C161	C16	0.685400	0.730900	0.616400
C171	C17	0.817300	0.767600	0.572100
C181	C18	0.174500	0.578200	0.419800
C191	C19	0.030200	0.536900	0.453300
C201	C20	0.473900	0.803000	0.394900
C211	C21	0.546200	0.683800	0.413700
C221	C22	0.693900	0.701900	0.349200
C231	C23	0.721000	0.751700	0.230100
C241	C24	0.543700	0.206500	0.971800
C251	C25	0.673300	0.083800	0.905500
C261	C26	0.646300	0.039700	0.012600
C271	C27	0.505800	0.115000	0.166000
C281	C28	0.598500	0.171700	0.207000
C291	C29	0.727300	0.097200	0.197100
C301	C30	0.828000	0.052800	0.346000
C311	C31	0.929700	0.195300	0.206300
C321	C32	0.996100	0.173800	0.279000
C331	C33	0.641400	0.301200	0.140400
C341	C34	0.421600	0.412100	0.131800
C351	C35	0.369700	0.510400	0.157400
C361	C36	0.555300	0.480200	0.196400
C371	C37	0.532400	0.159000	0.326000
C381	C38	0.295500	0.082600	0.393400
C391	C39	0.314600	0.269100	0.383600
C401	C40	0.182700	0.232400	0.427900
C411	C41	0.825500	0.421800	0.580200
C421	C42	0.969800	0.463100	0.546700
C431	C43	0.526100	0.197000	0.605100
C441	C44	0.453800	0.316200	0.586300
C451	C45	0.306100	0.298100	0.650800
C461	C46	0.279000	0.248300	0.769900
N11	N1	0.391800	0.810700	0.119100
N21	N2	0.436200	0.880400	0.945900
N31	N3	0.179300	0.882400	0.750600
N41	N4	0.068700	0.916000	0.632400
N51	N5	0.546000	0.446700	0.802000
N61	N6	0.459600	0.608600	0.842600
N71	N7	0.830300	0.886000	0.566100
N81	N8	0.614600	0.826800	0.638900
N91	N9	0.608200	0.189300	0.880900
N101	N10	0.563800	0.119600	0.054100
N111	N11	0.820700	0.117600	0.249400
N121	N12	0.931300	0.084000	0.367600
N131	N13	0.454000	0.553300	0.198000
N141	N14	0.540400	0.391400	0.157400
N151	N15	0.169700	0.114000	0.433900
N161	N16	0.385400	0.173200	0.361100
O11	O1	0.238300	0.544500	0.486100
O21	O2	0.222200	0.642800	0.325300
O31	O3	0.393600	0.820000	0.338500
O41	O4	0.500900	0.876200	0.433400
O51	O5	0.847900	0.765400	0.176100
O61	O6	0.631800	0.750600	0.187500
O71	O7	0.486800	0.598100	0.384600
O81	O8	0.761700	0.455500	0.513900
O91	O9	0.777800	0.357200	0.674700
O101	O10	0.606400	0.180000	0.661500
O111	O11	0.499100	0.123800	0.566600
O121	O12	0.152100	0.234600	0.823900
O131	O13	0.368200	0.249400	0.812500
O141	O14	0.513200	0.401900	0.615400
