data_UZAFIL_clean_PM
_symmetry_space_group_name_H-M	'P1'
_cell_length_a	10.137000
_cell_length_b	16.768000
_cell_length_c	15.852000
_cell_angle_alpha	90.000000
_cell_angle_beta	94.166000
_cell_angle_gamma	90.000000
_symmetry_Int_Tables_number 1

loop_
_symmetry_equiv_pos_as_xyz
'x,y,z'

loop_
_atom_site_label
_atom_site_type_symbol
_atom_site_fract_x
_atom_site_fract_y
_atom_site_fract_z
Ni11	Ni1	0.209990	0.227250	0.367630
C11	C1	0.635700	0.985880	0.736040
H11	H1	0.578800	0.014200	0.768400
C21	C2	0.627700	0.907700	0.715180
H21	H2	0.562500	0.872900	0.731200
C31	C3	0.797400	0.953230	0.659320
H31	H3	0.872800	0.957000	0.629500
C41	C4	0.789400	0.098160	0.701560
H41	H4	0.885200	0.099100	0.702600
H51	H5	0.764300	0.122700	0.753500
C51	C5	0.732400	0.148740	0.625660
C61	C6	0.778100	0.122250	0.540470
H61	H6	0.760100	0.065700	0.534200
H71	H7	0.724200	0.149600	0.496400
C71	C7	0.028600	0.098510	0.562100
H81	H8	0.031800	0.062200	0.606500
C81	C8	0.131000	0.125300	0.520920
H91	H9	0.218800	0.111000	0.533800
C91	C9	0.959200	0.181340	0.462520
H101	H10	0.903200	0.212500	0.427100
C101	C10	0.758800	0.237610	0.644860
H111	H11	0.736500	0.267900	0.593700
H121	H12	0.699600	0.254800	0.686700
C111	C11	0.987200	0.295460	0.631620
H131	H13	0.978600	0.309700	0.574800
C121	C12	0.092900	0.307950	0.686270
H141	H14	0.170900	0.332600	0.672900
C131	C13	0.948000	0.250200	0.755630
H151	H15	0.904600	0.227300	0.799300
C141	C14	0.580200	0.136970	0.622240
H161	H16	0.560400	0.083300	0.602400
H171	H17	0.552700	0.140800	0.679500
C151	C15	0.439800	0.259600	0.596900
H181	H18	0.453500	0.282900	0.650000
C161	C16	0.357100	0.285340	0.532380
H191	H19	0.304900	0.330900	0.533400
C171	C17	0.448000	0.179890	0.489420
H201	H20	0.471300	0.137400	0.455800
C181	C18	0.127500	0.400650	0.353220
C191	C19	0.063900	0.472200	0.392040
H211	H21	0.124000	0.517000	0.390000
H221	H22	0.984400	0.485700	0.357200
C201	C20	0.027700	0.462490	0.481230
H231	H23	0.105800	0.446100	0.516000
H241	H24	0.962700	0.420200	0.483100
O11	O1	0.139220	0.338160	0.397830
O21	O2	0.164640	0.408150	0.280100
N11	N1	0.745020	0.014880	0.699830
N21	N2	0.729690	0.887050	0.666760
N31	N3	0.917970	0.135670	0.525270
N41	N4	0.088390	0.176720	0.457160
N51	N5	0.894970	0.257870	0.675870
N61	N6	0.068800	0.279040	0.764450
N71	N7	0.499630	0.192490	0.569100
N81	N8	0.361060	0.234690	0.465000
Ni21	Ni2	0.790010	0.727250	0.132370
C211	C21	0.364300	0.485880	0.763960
H251	H25	0.421200	0.514200	0.731600
C221	C22	0.372300	0.407700	0.784820
H261	H26	0.437500	0.372900	0.768800
C231	C23	0.202600	0.453230	0.840680
H271	H27	0.127200	0.457000	0.870500
C241	C24	0.210600	0.598160	0.798440
H281	H28	0.114800	0.599100	0.797400
H291	H29	0.235700	0.622700	0.746500
C251	C25	0.267600	0.648740	0.874340
C261	C26	0.221900	0.622250	0.959530
H301	H30	0.239900	0.565700	0.965800
H311	H31	0.275800	0.649600	0.003600
C271	C27	0.971400	0.598510	0.937900
H321	H32	0.968200	0.562200	0.893500
C281	C28	0.869000	0.625300	0.979080
H331	H33	0.781200	0.611000	0.966200
C291	C29	0.040800	0.681340	0.037480
H341	H34	0.096800	0.712500	0.072900
C301	C30	0.241200	0.737610	0.855140
H351	H35	0.263500	0.767900	0.906300
H361	H36	0.300400	0.754800	0.813300
C311	C31	0.012800	0.795460	0.868380
H371	H37	0.021400	0.809700	0.925200
C321	C32	0.907100	0.807950	0.813730
H381	H38	0.829100	0.832600	0.827100
C331	C33	0.052000	0.750200	0.744370
H391	H39	0.095400	0.727300	0.700700
C341	C34	0.419800	0.636970	0.877760
H401	H40	0.439600	0.583300	0.897600
H411	H41	0.447300	0.640800	0.820500
C351	C35	0.560200	0.759600	0.903100
H421	H42	0.546500	0.782900	0.850000
C361	C36	0.642900	0.785340	0.967620
H431	H43	0.695100	0.830900	0.966600
C371	C37	0.552000	0.679890	0.010580
H441	H44	0.528700	0.637400	0.044200
C381	C38	0.872500	0.900650	0.146780
C391	C39	0.936100	0.972200	0.107960
H451	H45	0.876000	0.017000	0.110000
H461	H46	0.015600	0.985700	0.142800
C401	C40	0.972300	0.962490	0.018770
H471	H47	0.894200	0.946100	0.984000
H481	H48	0.037300	0.920200	0.016900
O31	O3	0.860780	0.838160	0.102170
O41	O4	0.835360	0.908150	0.219900
N91	N9	0.254980	0.514880	0.800170
N101	N10	0.270310	0.387050	0.833240
N111	N11	0.082030	0.635670	0.974730
N121	N12	0.911610	0.676720	0.042840
N131	N13	0.105030	0.757870	0.824130
N141	N14	0.931200	0.779040	0.735550
N151	N15	0.500370	0.692490	0.930900
N161	N16	0.638940	0.734690	0.035000
Ni31	Ni3	0.790010	0.772750	0.632370
C411	C41	0.364300	0.014120	0.263960
H491	H49	0.421200	0.985800	0.231600
C421	C42	0.372300	0.092300	0.284820
H501	H50	0.437500	0.127100	0.268800
C431	C43	0.202600	0.046770	0.340680
H511	H51	0.127200	0.043000	0.370500
C441	C44	0.210600	0.901840	0.298440
H521	H52	0.114800	0.900900	0.297400
H531	H53	0.235700	0.877300	0.246500
C451	C45	0.267600	0.851260	0.374340
C461	C46	0.221900	0.877750	0.459530
H541	H54	0.239900	0.934300	0.465800
H551	H55	0.275800	0.850400	0.503600
C471	C47	0.971400	0.901490	0.437900
H561	H56	0.968200	0.937800	0.393500
C481	C48	0.869000	0.874700	0.479080
H571	H57	0.781200	0.889000	0.466200
C491	C49	0.040800	0.818660	0.537480
H581	H58	0.096800	0.787500	0.572900
C501	C50	0.241200	0.762390	0.355140
H591	H59	0.263500	0.732100	0.406300
H601	H60	0.300400	0.745200	0.313300
C511	C51	0.012800	0.704540	0.368380
H611	H61	0.021400	0.690300	0.425200
C521	C52	0.907100	0.692050	0.313730
H621	H62	0.829100	0.667400	0.327100
C531	C53	0.052000	0.749800	0.244370
H631	H63	0.095400	0.772700	0.200700
C541	C54	0.419800	0.863030	0.377760
H641	H64	0.439600	0.916700	0.397600
H651	H65	0.447300	0.859200	0.320500
C551	C55	0.560200	0.740400	0.403100
H661	H66	0.546500	0.717100	0.350000
C561	C56	0.642900	0.714660	0.467620
H671	H67	0.695100	0.669100	0.466600
C571	C57	0.552000	0.820110	0.510580
H681	H68	0.528700	0.862600	0.544200
C581	C58	0.872500	0.599350	0.646780
C591	C59	0.936100	0.527800	0.607960
H691	H69	0.876000	0.483000	0.610000
H701	H70	0.015600	0.514300	0.642800
C601	C60	0.972300	0.537510	0.518770
H711	H71	0.894200	0.553900	0.484000
H721	H72	0.037300	0.579800	0.516900
O51	O5	0.860780	0.661840	0.602170
O61	O6	0.835360	0.591850	0.719900
N171	N17	0.254980	0.985120	0.300170
N181	N18	0.270310	0.112950	0.333240
N191	N19	0.082030	0.864330	0.474730
N201	N20	0.911610	0.823280	0.542840
N211	N21	0.105030	0.742130	0.324130
N221	N22	0.931200	0.720960	0.235550
N231	N23	0.500370	0.807510	0.430900
N241	N24	0.638940	0.765310	0.535000
Ni41	Ni4	0.209990	0.272750	0.867630
C611	C61	0.635700	0.514120	0.236040
H731	H73	0.578800	0.485800	0.268400
C621	C62	0.627700	0.592300	0.215180
H741	H74	0.562500	0.627100	0.231200
C631	C63	0.797400	0.546770	0.159320
H751	H75	0.872800	0.543000	0.129500
C641	C64	0.789400	0.401840	0.201560
H761	H76	0.885200	0.400900	0.202600
H771	H77	0.764300	0.377300	0.253500
C651	C65	0.732400	0.351260	0.125660
C661	C66	0.778100	0.377750	0.040470
H781	H78	0.760100	0.434300	0.034200
H791	H79	0.724200	0.350400	0.996400
C671	C67	0.028600	0.401490	0.062100
H801	H80	0.031800	0.437800	0.106500
C681	C68	0.131000	0.374700	0.020920
H811	H81	0.218800	0.389000	0.033800
C691	C69	0.959200	0.318660	0.962520
H821	H82	0.903200	0.287500	0.927100
C701	C70	0.758800	0.262390	0.144860
H831	H83	0.736500	0.232100	0.093700
H841	H84	0.699600	0.245200	0.186700
C711	C71	0.987200	0.204540	0.131620
H851	H85	0.978600	0.190300	0.074800
C721	C72	0.092900	0.192050	0.186270
H861	H86	0.170900	0.167400	0.172900
C731	C73	0.948000	0.249800	0.255630
H871	H87	0.904600	0.272700	0.299300
C741	C74	0.580200	0.363030	0.122240
H881	H88	0.560400	0.416700	0.102400
H891	H89	0.552700	0.359200	0.179500
C751	C75	0.439800	0.240400	0.096900
H901	H90	0.453500	0.217100	0.150000
C761	C76	0.357100	0.214660	0.032380
H911	H91	0.304900	0.169100	0.033400
C771	C77	0.448000	0.320110	0.989420
H921	H92	0.471300	0.362600	0.955800
C781	C78	0.127500	0.099350	0.853220
C791	C79	0.063900	0.027800	0.892040
H931	H93	0.124000	0.983000	0.890000
H941	H94	0.984400	0.014300	0.857200
C801	C80	0.027700	0.037510	0.981230
H951	H95	0.105800	0.053900	0.016000
H961	H96	0.962700	0.079800	0.983100
O71	O7	0.139220	0.161840	0.897830
O81	O8	0.164640	0.091850	0.780100
N251	N25	0.745020	0.485120	0.199830
N261	N26	0.729690	0.612950	0.166760
N271	N27	0.917970	0.364330	0.025270
N281	N28	0.088390	0.323280	0.957160
N291	N29	0.894970	0.242130	0.175870
N301	N30	0.068800	0.220960	0.264450
N311	N31	0.499630	0.307510	0.069100
N321	N32	0.361060	0.265310	0.965000
