data_UZANAL_clean_PM
_symmetry_space_group_name_H-M	'P1'
_cell_length_a	9.583100
_cell_length_b	10.104500
_cell_length_c	20.173500
_cell_angle_alpha	103.262000
_cell_angle_beta	90.000000
_cell_angle_gamma	90.000000
_symmetry_Int_Tables_number 1

loop_
_symmetry_equiv_pos_as_xyz
'x,y,z'

loop_
_atom_site_label
_atom_site_type_symbol
_atom_site_fract_x
_atom_site_fract_y
_atom_site_fract_z
Gd11	Gd1	0.429440	0.768770	0.798550
Gd21	Gd2	0.929440	0.731230	0.701450
Gd31	Gd3	0.570560	0.231230	0.201450
Gd41	Gd4	0.070560	0.268770	0.298550
Zn11	Zn1	0.861500	0.303670	0.663790
Zn21	Zn2	0.361500	0.196330	0.836210
Zn31	Zn3	0.138500	0.696330	0.336210
Zn41	Zn4	0.638500	0.803670	0.163790
H11	H1	0.007700	0.944300	0.153500
H21	H2	0.901600	0.823500	0.056500
H31	H3	0.018700	0.779200	0.954300
H41	H4	0.351700	0.983600	0.046800
H51	H5	0.627300	0.101800	0.720200
H61	H6	0.507700	0.555700	0.346500
H71	H7	0.401600	0.676500	0.443500
H81	H8	0.518700	0.720800	0.545700
H91	H9	0.851700	0.516400	0.453200
H101	H10	0.127300	0.398200	0.779800
H111	H11	0.992300	0.055700	0.846500
H121	H12	0.098400	0.176500	0.943500
H131	H13	0.981300	0.220800	0.045700
H141	H14	0.648300	0.016400	0.953200
H151	H15	0.372700	0.898200	0.279800
H161	H16	0.492300	0.444300	0.653500
H171	H17	0.598400	0.323500	0.556500
H181	H18	0.481300	0.279200	0.454300
H191	H19	0.148300	0.483600	0.546800
H201	H20	0.872700	0.601800	0.220200
C11	C1	0.191500	0.975200	0.110600
C21	C2	0.055900	0.927100	0.112400
C31	C3	0.992300	0.854900	0.054500
C41	C4	0.062200	0.828500	0.993400
C51	C5	0.197900	0.875700	0.990000
C61	C6	0.261700	0.950300	0.048900
C71	C7	0.274200	0.844400	0.923600
C81	C8	0.259300	0.054300	0.174600
C91	C9	0.701800	0.536300	0.739200
C101	C10	0.638700	0.411700	0.752800
C111	C11	0.536500	0.386500	0.795400
C121	C12	0.448400	0.473900	0.848300
C131	C13	0.614800	0.194700	0.737100
C141	C14	0.691500	0.524800	0.389400
C151	C15	0.555900	0.572900	0.387600
C161	C16	0.492300	0.645100	0.445500
C171	C17	0.562200	0.671500	0.506600
C181	C18	0.697900	0.624300	0.510000
C191	C19	0.761700	0.549700	0.451100
C201	C20	0.774200	0.655600	0.576400
C211	C21	0.759300	0.445700	0.325400
C221	C22	0.201800	0.963700	0.760800
C231	C23	0.138700	0.088300	0.747200
C241	C24	0.036500	0.113500	0.704600
C251	C25	0.948400	0.026100	0.651700
C261	C26	0.114800	0.305300	0.762900
C271	C27	0.808500	0.024800	0.889400
C281	C28	0.944100	0.072900	0.887600
C291	C29	0.007700	0.145100	0.945500
C301	C30	0.937800	0.171500	0.006600
C311	C31	0.802100	0.124300	0.010000
C321	C32	0.738300	0.049700	0.951100
C331	C33	0.725800	0.155600	0.076400
C341	C34	0.740700	0.945700	0.825400
C351	C35	0.298200	0.463700	0.260800
C361	C36	0.361300	0.588300	0.247200
C371	C37	0.463500	0.613500	0.204600
C381	C38	0.551600	0.526100	0.151700
C391	C39	0.385200	0.805300	0.262900
C401	C40	0.308500	0.475200	0.610600
C411	C41	0.444100	0.427100	0.612400
C421	C42	0.507700	0.354900	0.554500
C431	C43	0.437800	0.328500	0.493400
C441	C44	0.302100	0.375700	0.490000
C451	C45	0.238300	0.450300	0.548900
C461	C46	0.225800	0.344400	0.423600
C471	C47	0.240700	0.554300	0.674600
C481	C48	0.798200	0.036300	0.239200
C491	C49	0.861300	0.911700	0.252800
C501	C50	0.963500	0.886500	0.295400
C511	C51	0.051600	0.973900	0.348300
C521	C52	0.885200	0.694700	0.237100
N11	N1	0.686900	0.289900	0.715800
N21	N2	0.521800	0.248100	0.785800
N31	N3	0.186900	0.210100	0.784200
N41	N4	0.021800	0.251900	0.714200
N51	N5	0.313100	0.710100	0.284200
N61	N6	0.478200	0.751900	0.214200
N71	N7	0.813100	0.789900	0.215800
N81	N8	0.978200	0.748100	0.285800
O11	O1	0.219500	0.771880	0.871480
O21	O2	0.397100	0.890460	0.920560
O31	O3	0.386900	0.079550	0.171450
O41	O4	0.186100	0.088010	0.227510
O51	O5	0.649900	0.650200	0.759300
O61	O6	0.814000	0.516430	0.703930
O71	O7	0.466700	0.601260	0.862060
O81	O8	0.361800	0.414890	0.877990
O91	O9	0.719500	0.728120	0.628520
O101	O10	0.897100	0.609540	0.579440
O111	O11	0.886900	0.420450	0.328550
O121	O12	0.686100	0.411990	0.272490
O131	O13	0.149900	0.849800	0.740700
O141	O14	0.314000	0.983570	0.796070
O151	O15	0.966700	0.898740	0.637940
O161	O16	0.861800	0.085110	0.622010
O171	O17	0.780500	0.228120	0.128520
O181	O18	0.602900	0.109540	0.079440
O191	O19	0.613100	0.920450	0.828550
O201	O20	0.813900	0.911990	0.772490
O211	O21	0.350100	0.349800	0.240700
O221	O22	0.186000	0.483570	0.296070
O231	O23	0.533300	0.398740	0.137940
O241	O24	0.638200	0.585110	0.122010
O251	O25	0.280500	0.271880	0.371480
O261	O26	0.102900	0.390460	0.420560
O271	O27	0.113100	0.579550	0.671450
O281	O28	0.313900	0.588010	0.727510
O291	O29	0.850100	0.150200	0.259300
O301	O30	0.686000	0.016430	0.203930
O311	O31	0.033300	0.101260	0.362060
O321	O32	0.138200	0.914890	0.377990
