data_UZIGOB_clean_PM
_symmetry_space_group_name_H-M	'P1'
_cell_length_a	10.327700
_cell_length_b	17.670500
_cell_length_c	10.600900
_cell_angle_alpha	90.000000
_cell_angle_beta	91.700000
_cell_angle_gamma	90.000000
_symmetry_Int_Tables_number 1

loop_
_symmetry_equiv_pos_as_xyz
'x,y,z'

loop_
_atom_site_label
_atom_site_type_symbol
_atom_site_fract_x
_atom_site_fract_y
_atom_site_fract_z
Zn11	Zn1	0.233740	0.168770	0.494560
Zn21	Zn2	0.011160	0.174780	0.808130
P11	P1	0.298780	0.228380	0.762530
H11	H1	0.402200	0.193100	0.804800
P21	P2	0.941710	0.209020	0.528790
H21	H2	0.846500	0.180100	0.496600
O11	O1	0.196700	0.171780	0.797700
O21	O2	0.309100	0.238850	0.620500
O31	O3	0.286000	0.304390	0.827000
O41	O4	0.050800	0.154300	0.500100
O51	O5	0.945500	0.281100	0.457900
O61	O6	0.928000	0.226200	0.667400
N11	N1	0.316900	0.068500	0.541700
N21	N2	0.446600	0.992600	0.649400
N31	N3	0.166200	0.030400	0.124700
N41	N4	0.047800	0.932300	0.176000
C11	C1	0.426200	0.063500	0.607600
H31	H3	0.482300	0.103800	0.623400
C21	C2	0.264100	0.998200	0.541200
H41	H4	0.186000	0.985000	0.501200
C31	C3	0.342600	0.950100	0.607900
H51	H5	0.328700	0.898900	0.622500
C41	C4	0.551500	0.968300	0.735800
H61	H6	0.630700	0.994000	0.713700
H71	H7	0.565100	0.914400	0.725600
C51	C5	0.523700	0.984700	0.873100
C61	C6	0.411200	0.020700	0.908900
H81	H8	0.350700	0.034900	0.846600
C71	C7	0.385300	0.036400	0.032900
C81	C8	0.263200	0.078200	0.062800
H91	H9	0.285000	0.120600	0.117600
H101	H10	0.225100	0.098500	0.985200
C91	C9	0.144800	0.956300	0.108300
H111	H11	0.192500	0.925500	0.055800
C101	C10	0.076900	0.055500	0.206900
H121	H12	0.067000	0.104700	0.236100
C111	C11	0.005300	0.994400	0.237400
H131	H13	0.936900	0.995000	0.292500
Zn31	Zn3	0.766260	0.668770	0.005440
Zn41	Zn4	0.988840	0.674780	0.691870
P31	P3	0.701220	0.728380	0.737470
H141	H14	0.597800	0.693100	0.695200
P41	P4	0.058290	0.709020	0.971210
H151	H15	0.153500	0.680100	0.003400
O71	O7	0.803300	0.671780	0.702300
O81	O8	0.690900	0.738850	0.879500
O91	O9	0.714000	0.804390	0.673000
O101	O10	0.949200	0.654300	0.999900
O111	O11	0.054500	0.781100	0.042100
O121	O12	0.072000	0.726200	0.832600
N51	N5	0.683100	0.568500	0.958300
N61	N6	0.553400	0.492600	0.850600
N71	N7	0.833800	0.530400	0.375300
N81	N8	0.952200	0.432300	0.324000
C121	C12	0.573800	0.563500	0.892400
H161	H16	0.517700	0.603800	0.876600
C131	C13	0.735900	0.498200	0.958800
H171	H17	0.814000	0.485000	0.998800
C141	C14	0.657400	0.450100	0.892100
H181	H18	0.671300	0.398900	0.877500
C151	C15	0.448500	0.468300	0.764200
H191	H19	0.369300	0.494000	0.786300
H201	H20	0.434900	0.414400	0.774400
C161	C16	0.476300	0.484700	0.626900
C171	C17	0.588800	0.520700	0.591100
H211	H21	0.649300	0.534900	0.653400
C181	C18	0.614700	0.536400	0.467100
C191	C19	0.736800	0.578200	0.437200
H221	H22	0.715000	0.620600	0.382400
H231	H23	0.774900	0.598500	0.514800
C201	C20	0.855200	0.456300	0.391700
H241	H24	0.807500	0.425500	0.444200
C211	C21	0.923100	0.555500	0.293100
H251	H25	0.933000	0.604700	0.263900
C221	C22	0.994700	0.494400	0.262600
H261	H26	0.063100	0.495000	0.207500
Zn51	Zn5	0.766260	0.831230	0.505440
Zn61	Zn6	0.988840	0.825220	0.191870
P51	P5	0.701220	0.771620	0.237470
H271	H27	0.597800	0.806900	0.195200
P61	P6	0.058290	0.790980	0.471210
H281	H28	0.153500	0.819900	0.503400
O131	O13	0.803300	0.828220	0.202300
O141	O14	0.690900	0.761150	0.379500
O151	O15	0.714000	0.695610	0.173000
O161	O16	0.949200	0.845700	0.499900
O171	O17	0.054500	0.718900	0.542100
O181	O18	0.072000	0.773800	0.332600
N91	N9	0.683100	0.931500	0.458300
N101	N10	0.553400	0.007400	0.350600
N111	N11	0.833800	0.969600	0.875300
N121	N12	0.952200	0.067700	0.824000
C231	C23	0.573800	0.936500	0.392400
H291	H29	0.517700	0.896200	0.376600
C241	C24	0.735900	0.001800	0.458800
H301	H30	0.814000	0.015000	0.498800
C251	C25	0.657400	0.049900	0.392100
H311	H31	0.671300	0.101100	0.377500
C261	C26	0.448500	0.031700	0.264200
H321	H32	0.369300	0.006000	0.286300
H331	H33	0.434900	0.085600	0.274400
C271	C27	0.476300	0.015300	0.126900
C281	C28	0.588800	0.979300	0.091100
H341	H34	0.649300	0.965100	0.153400
C291	C29	0.614700	0.963600	0.967100
C301	C30	0.736800	0.921800	0.937200
H351	H35	0.715000	0.879400	0.882400
H361	H36	0.774900	0.901500	0.014800
C311	C31	0.855200	0.043700	0.891700
H371	H37	0.807500	0.074500	0.944200
C321	C32	0.923100	0.944500	0.793100
H381	H38	0.933000	0.895300	0.763900
C331	C33	0.994700	0.005600	0.762600
H391	H39	0.063100	0.005000	0.707500
Zn71	Zn7	0.233740	0.331230	0.994560
Zn81	Zn8	0.011160	0.325220	0.308130
P71	P7	0.298780	0.271620	0.262530
H401	H40	0.402200	0.306900	0.304800
P81	P8	0.941710	0.290980	0.028790
H411	H41	0.846500	0.319900	0.996600
O191	O19	0.196700	0.328220	0.297700
O201	O20	0.309100	0.261150	0.120500
O211	O21	0.286000	0.195610	0.327000
O221	O22	0.050800	0.345700	0.000100
O231	O23	0.945500	0.218900	0.957900
O241	O24	0.928000	0.273800	0.167400
N131	N13	0.316900	0.431500	0.041700
N141	N14	0.446600	0.507400	0.149400
N151	N15	0.166200	0.469600	0.624700
N161	N16	0.047800	0.567700	0.676000
C341	C34	0.426200	0.436500	0.107600
H421	H42	0.482300	0.396200	0.123400
C351	C35	0.264100	0.501800	0.041200
H431	H43	0.186000	0.515000	0.001200
C361	C36	0.342600	0.549900	0.107900
H441	H44	0.328700	0.601100	0.122500
C371	C37	0.551500	0.531700	0.235800
H451	H45	0.630700	0.506000	0.213700
H461	H46	0.565100	0.585600	0.225600
C381	C38	0.523700	0.515300	0.373100
C391	C39	0.411200	0.479300	0.408900
H471	H47	0.350700	0.465100	0.346600
C401	C40	0.385300	0.463600	0.532900
C411	C41	0.263200	0.421800	0.562800
H481	H48	0.285000	0.379400	0.617600
H491	H49	0.225100	0.401500	0.485200
C421	C42	0.144800	0.543700	0.608300
H501	H50	0.192500	0.574500	0.555800
C431	C43	0.076900	0.444500	0.706900
H511	H51	0.067000	0.395300	0.736100
C441	C44	0.005300	0.505600	0.737400
H521	H52	0.936900	0.505000	0.792500
