data_UZOBAN_clean_PM
_symmetry_space_group_name_H-M	'P1'
_cell_length_a	9.228000
_cell_length_b	34.079000
_cell_length_c	23.299000
_cell_angle_alpha	90.000000
_cell_angle_beta	90.000000
_cell_angle_gamma	90.000000
_symmetry_Int_Tables_number 1

loop_
_symmetry_equiv_pos_as_xyz
'x,y,z'

loop_
_atom_site_label
_atom_site_type_symbol
_atom_site_fract_x
_atom_site_fract_y
_atom_site_fract_z
C11	C1	0.000800	0.781700	0.413900
H11	H1	0.943900	0.766200	0.437700
C21	C2	0.936900	0.799200	0.366600
H21	H2	0.838400	0.795700	0.359700
C31	C3	0.018300	0.821420	0.329760
C41	C4	0.160500	0.826400	0.344200
H31	H3	0.219700	0.841800	0.321000
C51	C5	0.218400	0.808900	0.393000
H41	H4	0.315200	0.813200	0.402200
C61	C6	0.954000	0.838470	0.277350
H51	H5	0.859600	0.826400	0.269700
C71	C7	0.941800	0.884650	0.272540
H61	H6	0.849200	0.891300	0.254400
C81	C8	0.958700	0.909250	0.326530
C91	C9	0.856400	0.909200	0.367900
H71	H7	0.774900	0.893400	0.363900
C101	C10	0.871200	0.932000	0.415000
H81	H8	0.796800	0.932100	0.441900
C111	C11	0.079900	0.954600	0.385700
H91	H9	0.160000	0.970700	0.390700
C121	C12	0.073700	0.933000	0.336200
H101	H10	0.148100	0.934600	0.309400
N11	N1	0.139000	0.786250	0.426570
N21	N2	0.986700	0.954370	0.424850
C131	C13	0.500800	0.281700	0.413900
H111	H11	0.443900	0.266200	0.437700
C141	C14	0.436900	0.299200	0.366600
H121	H12	0.338400	0.295700	0.359700
C151	C15	0.518300	0.321420	0.329760
C161	C16	0.660500	0.326400	0.344200
H131	H13	0.719700	0.341800	0.321000
C171	C17	0.718400	0.308900	0.393000
H141	H14	0.815200	0.313200	0.402200
C181	C18	0.454000	0.338470	0.277350
H151	H15	0.359600	0.326400	0.269700
C191	C19	0.441800	0.384650	0.272540
H161	H16	0.349200	0.391300	0.254400
C201	C20	0.458700	0.409250	0.326530
C211	C21	0.356400	0.409200	0.367900
H171	H17	0.274900	0.393400	0.363900
C221	C22	0.371200	0.432000	0.415000
H181	H18	0.296800	0.432100	0.441900
C231	C23	0.579900	0.454600	0.385700
H191	H19	0.660000	0.470700	0.390700
C241	C24	0.573700	0.433000	0.336200
H201	H20	0.648100	0.434600	0.309400
N31	N3	0.639000	0.286250	0.426570
N41	N4	0.486700	0.454370	0.424850
C251	C25	0.999200	0.218300	0.413900
H211	H21	0.056100	0.233800	0.437700
C261	C26	0.063100	0.200800	0.366600
H221	H22	0.161600	0.204300	0.359700
C271	C27	0.981700	0.178580	0.329760
C281	C28	0.839500	0.173600	0.344200
H231	H23	0.780300	0.158200	0.321000
C291	C29	0.781600	0.191100	0.393000
H241	H24	0.684800	0.186800	0.402200
C301	C30	0.046000	0.161530	0.277350
H251	H25	0.140400	0.173600	0.269700
C311	C31	0.058200	0.115350	0.272540
H261	H26	0.150800	0.108700	0.254400
C321	C32	0.041300	0.090750	0.326530
C331	C33	0.143600	0.090800	0.367900
H271	H27	0.225100	0.106600	0.363900
C341	C34	0.128800	0.068000	0.415000
H281	H28	0.203200	0.067900	0.441900
C351	C35	0.920100	0.045400	0.385700
H291	H29	0.840000	0.029300	0.390700
C361	C36	0.926300	0.067000	0.336200
H301	H30	0.851900	0.065400	0.309400
N51	N5	0.861000	0.213750	0.426570
N61	N6	0.013300	0.045630	0.424850
C371	C37	0.499200	0.718300	0.413900
H311	H31	0.556100	0.733800	0.437700
C381	C38	0.563100	0.700800	0.366600
H321	H32	0.661600	0.704300	0.359700
C391	C39	0.481700	0.678580	0.329760
C401	C40	0.339500	0.673600	0.344200
H331	H33	0.280300	0.658200	0.321000
C411	C41	0.281600	0.691100	0.393000
H341	H34	0.184800	0.686800	0.402200
C421	C42	0.546000	0.661530	0.277350
H351	H35	0.640400	0.673600	0.269700
C431	C43	0.558200	0.615350	0.272540
H361	H36	0.650800	0.608700	0.254400
C441	C44	0.541300	0.590750	0.326530
C451	C45	0.643600	0.590800	0.367900
H371	H37	0.725100	0.606600	0.363900
C461	C46	0.628800	0.568000	0.415000
H381	H38	0.703200	0.567900	0.441900
C471	C47	0.420100	0.545400	0.385700
H391	H39	0.340000	0.529300	0.390700
C481	C48	0.426300	0.567000	0.336200
H401	H40	0.351900	0.565400	0.309400
N71	N7	0.361000	0.713750	0.426570
N81	N8	0.513300	0.545630	0.424850
C491	C49	0.999200	0.781700	0.086100
H411	H41	0.056100	0.766200	0.062300
C501	C50	0.063100	0.799200	0.133400
H421	H42	0.161600	0.795700	0.140300
C511	C51	0.981700	0.821420	0.170240
C521	C52	0.839500	0.826400	0.155800
H431	H43	0.780300	0.841800	0.179000
C531	C53	0.781600	0.808900	0.107000
H441	H44	0.684800	0.813200	0.097800
C541	C54	0.046000	0.838470	0.222650
H451	H45	0.140400	0.826400	0.230300
C551	C55	0.058200	0.884650	0.227460
H461	H46	0.150800	0.891300	0.245600
C561	C56	0.041300	0.909250	0.173470
C571	C57	0.143600	0.909200	0.132100
H471	H47	0.225100	0.893400	0.136100
C581	C58	0.128800	0.932000	0.085000
H481	H48	0.203200	0.932100	0.058100
C591	C59	0.920100	0.954600	0.114300
H491	H49	0.840000	0.970700	0.109300
C601	C60	0.926300	0.933000	0.163800
H501	H50	0.851900	0.934600	0.190600
N91	N9	0.861000	0.786250	0.073430
N101	N10	0.013300	0.954370	0.075150
C611	C61	0.499200	0.281700	0.086100
H511	H51	0.556100	0.266200	0.062300
C621	C62	0.563100	0.299200	0.133400
H521	H52	0.661600	0.295700	0.140300
C631	C63	0.481700	0.321420	0.170240
C641	C64	0.339500	0.326400	0.155800
H531	H53	0.280300	0.341800	0.179000
C651	C65	0.281600	0.308900	0.107000
H541	H54	0.184800	0.313200	0.097800
C661	C66	0.546000	0.338470	0.222650
H551	H55	0.640400	0.326400	0.230300
C671	C67	0.558200	0.384650	0.227460
H561	H56	0.650800	0.391300	0.245600
C681	C68	0.541300	0.409250	0.173470
C691	C69	0.643600	0.409200	0.132100
H571	H57	0.725100	0.393400	0.136100
C701	C70	0.628800	0.432000	0.085000
H581	H58	0.703200	0.432100	0.058100
C711	C71	0.420100	0.454600	0.114300
H591	H59	0.340000	0.470700	0.109300
C721	C72	0.426300	0.433000	0.163800
H601	H60	0.351900	0.434600	0.190600
N111	N11	0.361000	0.286250	0.073430
N121	N12	0.513300	0.454370	0.075150
C731	C73	0.000800	0.218300	0.086100
H611	H61	0.943900	0.233800	0.062300
C741	C74	0.936900	0.200800	0.133400
H621	H62	0.838400	0.204300	0.140300
C751	C75	0.018300	0.178580	0.170240
C761	C76	0.160500	0.173600	0.155800
H631	H63	0.219700	0.158200	0.179000
C771	C77	0.218400	0.191100	0.107000
H641	H64	0.315200	0.186800	0.097800
C781	C78	0.954000	0.161530	0.222650
H651	H65	0.859600	0.173600	0.230300
C791	C79	0.941800	0.115350	0.227460
H661	H66	0.849200	0.108700	0.245600
C801	C80	0.958700	0.090750	0.173470
C811	C81	0.856400	0.090800	0.132100
H671	H67	0.774900	0.106600	0.136100
C821	C82	0.871200	0.068000	0.085000
H681	H68	0.796800	0.067900	0.058100
C831	C83	0.079900	0.045400	0.114300
H691	H69	0.160000	0.029300	0.109300
C841	C84	0.073700	0.067000	0.163800
H701	H70	0.148100	0.065400	0.190600
N131	N13	0.139000	0.213750	0.073430
N141	N14	0.986700	0.045630	0.075150
C851	C85	0.500800	0.718300	0.086100
H711	H71	0.443900	0.733800	0.062300
C861	C86	0.436900	0.700800	0.133400
H721	H72	0.338400	0.704300	0.140300
C871	C87	0.518300	0.678580	0.170240
C881	C88	0.660500	0.673600	0.155800
H731	H73	0.719700	0.658200	0.179000
C891	C89	0.718400	0.691100	0.107000
H741	H74	0.815200	0.686800	0.097800
C901	C90	0.454000	0.661530	0.222650
H751	H75	0.359600	0.673600	0.230300
C911	C91	0.441800	0.615350	0.227460
H761	H76	0.349200	0.608700	0.245600
C921	C92	0.458700	0.590750	0.173470
C931	C93	0.356400	0.590800	0.132100
H771	H77	0.274900	0.606600	0.136100
C941	C94	0.371200	0.568000	0.085000
H781	H78	0.296800	0.567900	0.058100
C951	C95	0.579900	0.545400	0.114300
H791	H79	0.660000	0.529300	0.109300
C961	C96	0.573700	0.567000	0.163800
H801	H80	0.648100	0.565400	0.190600
N151	N15	0.639000	0.713750	0.073430
N161	N16	0.486700	0.545630	0.075150
C971	C97	0.999200	0.218300	0.586100
H811	H81	0.056100	0.233800	0.562300
C981	C98	0.063100	0.200800	0.633400
H821	H82	0.161600	0.204300	0.640300
C991	C99	0.981700	0.178580	0.670240
C1001	C100	0.839500	0.173600	0.655800
H831	H83	0.780300	0.158200	0.679000
C1011	C101	0.781600	0.191100	0.607000
H841	H84	0.684800	0.186800	0.597800
C1021	C102	0.046000	0.161530	0.722650
H851	H85	0.140400	0.173600	0.730300
C1031	C103	0.058200	0.115350	0.727460
H861	H86	0.150800	0.108700	0.745600
C1041	C104	0.041300	0.090750	0.673470
C1051	C105	0.143600	0.090800	0.632100
H871	H87	0.225100	0.106600	0.636100
C1061	C106	0.128800	0.068000	0.585000
H881	H88	0.203200	0.067900	0.558100
C1071	C107	0.920100	0.045400	0.614300
H891	H89	0.840000	0.029300	0.609300
C1081	C108	0.926300	0.067000	0.663800
H901	H90	0.851900	0.065400	0.690600
N171	N17	0.861000	0.213750	0.573430
N181	N18	0.013300	0.045630	0.575150
C1091	C109	0.499200	0.718300	0.586100
H911	H91	0.556100	0.733800	0.562300
C1101	C110	0.563100	0.700800	0.633400
H921	H92	0.661600	0.704300	0.640300
C1111	C111	0.481700	0.678580	0.670240
C1121	C112	0.339500	0.673600	0.655800
H931	H93	0.280300	0.658200	0.679000
C1131	C113	0.281600	0.691100	0.607000
H941	H94	0.184800	0.686800	0.597800
C1141	C114	0.546000	0.661530	0.722650
H951	H95	0.640400	0.673600	0.730300
C1151	C115	0.558200	0.615350	0.727460
H961	H96	0.650800	0.608700	0.745600
C1161	C116	0.541300	0.590750	0.673470
C1171	C117	0.643600	0.590800	0.632100
H971	H97	0.725100	0.606600	0.636100
C1181	C118	0.628800	0.568000	0.585000
H981	H98	0.703200	0.567900	0.558100
C1191	C119	0.420100	0.545400	0.614300
H991	H99	0.340000	0.529300	0.609300
C1201	C120	0.426300	0.567000	0.663800
H1001	H100	0.351900	0.565400	0.690600
N191	N19	0.361000	0.713750	0.573430
N201	N20	0.513300	0.545630	0.575150
C1211	C121	0.000800	0.781700	0.586100
H1011	H101	0.943900	0.766200	0.562300
C1221	C122	0.936900	0.799200	0.633400
H1021	H102	0.838400	0.795700	0.640300
C1231	C123	0.018300	0.821420	0.670240
C1241	C124	0.160500	0.826400	0.655800
H1031	H103	0.219700	0.841800	0.679000
C1251	C125	0.218400	0.808900	0.607000
H1041	H104	0.315200	0.813200	0.597800
C1261	C126	0.954000	0.838470	0.722650
H1051	H105	0.859600	0.826400	0.730300
C1271	C127	0.941800	0.884650	0.727460
H1061	H106	0.849200	0.891300	0.745600
C1281	C128	0.958700	0.909250	0.673470
C1291	C129	0.856400	0.909200	0.632100
H1071	H107	0.774900	0.893400	0.636100
C1301	C130	0.871200	0.932000	0.585000
H1081	H108	0.796800	0.932100	0.558100
C1311	C131	0.079900	0.954600	0.614300
H1091	H109	0.160000	0.970700	0.609300
C1321	C132	0.073700	0.933000	0.663800
H1101	H110	0.148100	0.934600	0.690600
N211	N21	0.139000	0.786250	0.573430
N221	N22	0.986700	0.954370	0.575150
C1331	C133	0.500800	0.281700	0.586100
H1111	H111	0.443900	0.266200	0.562300
C1341	C134	0.436900	0.299200	0.633400
H1121	H112	0.338400	0.295700	0.640300
C1351	C135	0.518300	0.321420	0.670240
C1361	C136	0.660500	0.326400	0.655800
H1131	H113	0.719700	0.341800	0.679000
C1371	C137	0.718400	0.308900	0.607000
H1141	H114	0.815200	0.313200	0.597800
C1381	C138	0.454000	0.338470	0.722650
H1151	H115	0.359600	0.326400	0.730300
C1391	C139	0.441800	0.384650	0.727460
H1161	H116	0.349200	0.391300	0.745600
C1401	C140	0.458700	0.409250	0.673470
C1411	C141	0.356400	0.409200	0.632100
H1171	H117	0.274900	0.393400	0.636100
C1421	C142	0.371200	0.432000	0.585000
H1181	H118	0.296800	0.432100	0.558100
C1431	C143	0.579900	0.454600	0.614300
H1191	H119	0.660000	0.470700	0.609300
C1441	C144	0.573700	0.433000	0.663800
H1201	H120	0.648100	0.434600	0.690600
N231	N23	0.639000	0.286250	0.573430
N241	N24	0.486700	0.454370	0.575150
C1451	C145	0.000800	0.218300	0.913900
H1211	H121	0.943900	0.233800	0.937700
C1461	C146	0.936900	0.200800	0.866600
H1221	H122	0.838400	0.204300	0.859700
C1471	C147	0.018300	0.178580	0.829760
C1481	C148	0.160500	0.173600	0.844200
H1231	H123	0.219700	0.158200	0.821000
C1491	C149	0.218400	0.191100	0.893000
H1241	H124	0.315200	0.186800	0.902200
C1501	C150	0.954000	0.161530	0.777350
H1251	H125	0.859600	0.173600	0.769700
C1511	C151	0.941800	0.115350	0.772540
H1261	H126	0.849200	0.108700	0.754400
C1521	C152	0.958700	0.090750	0.826530
C1531	C153	0.856400	0.090800	0.867900
H1271	H127	0.774900	0.106600	0.863900
C1541	C154	0.871200	0.068000	0.915000
H1281	H128	0.796800	0.067900	0.941900
C1551	C155	0.079900	0.045400	0.885700
H1291	H129	0.160000	0.029300	0.890700
C1561	C156	0.073700	0.067000	0.836200
H1301	H130	0.148100	0.065400	0.809400
N251	N25	0.139000	0.213750	0.926570
N261	N26	0.986700	0.045630	0.924850
C1571	C157	0.500800	0.718300	0.913900
H1311	H131	0.443900	0.733800	0.937700
C1581	C158	0.436900	0.700800	0.866600
H1321	H132	0.338400	0.704300	0.859700
C1591	C159	0.518300	0.678580	0.829760
C1601	C160	0.660500	0.673600	0.844200
H1331	H133	0.719700	0.658200	0.821000
C1611	C161	0.718400	0.691100	0.893000
H1341	H134	0.815200	0.686800	0.902200
C1621	C162	0.454000	0.661530	0.777350
H1351	H135	0.359600	0.673600	0.769700
C1631	C163	0.441800	0.615350	0.772540
H1361	H136	0.349200	0.608700	0.754400
C1641	C164	0.458700	0.590750	0.826530
C1651	C165	0.356400	0.590800	0.867900
H1371	H137	0.274900	0.606600	0.863900
C1661	C166	0.371200	0.568000	0.915000
H1381	H138	0.296800	0.567900	0.941900
C1671	C167	0.579900	0.545400	0.885700
H1391	H139	0.660000	0.529300	0.890700
C1681	C168	0.573700	0.567000	0.836200
H1401	H140	0.648100	0.565400	0.809400
N271	N27	0.639000	0.713750	0.926570
N281	N28	0.486700	0.545630	0.924850
C1691	C169	0.999200	0.781700	0.913900
H1411	H141	0.056100	0.766200	0.937700
C1701	C170	0.063100	0.799200	0.866600
H1421	H142	0.161600	0.795700	0.859700
C1711	C171	0.981700	0.821420	0.829760
C1721	C172	0.839500	0.826400	0.844200
H1431	H143	0.780300	0.841800	0.821000
C1731	C173	0.781600	0.808900	0.893000
H1441	H144	0.684800	0.813200	0.902200
C1741	C174	0.046000	0.838470	0.777350
H1451	H145	0.140400	0.826400	0.769700
C1751	C175	0.058200	0.884650	0.772540
H1461	H146	0.150800	0.891300	0.754400
C1761	C176	0.041300	0.909250	0.826530
C1771	C177	0.143600	0.909200	0.867900
H1471	H147	0.225100	0.893400	0.863900
C1781	C178	0.128800	0.932000	0.915000
H1481	H148	0.203200	0.932100	0.941900
C1791	C179	0.920100	0.954600	0.885700
H1491	H149	0.840000	0.970700	0.890700
C1801	C180	0.926300	0.933000	0.836200
H1501	H150	0.851900	0.934600	0.809400
N291	N29	0.861000	0.786250	0.926570
N301	N30	0.013300	0.954370	0.924850
C1811	C181	0.499200	0.281700	0.913900
H1511	H151	0.556100	0.266200	0.937700
C1821	C182	0.563100	0.299200	0.866600
H1521	H152	0.661600	0.295700	0.859700
C1831	C183	0.481700	0.321420	0.829760
C1841	C184	0.339500	0.326400	0.844200
H1531	H153	0.280300	0.341800	0.821000
C1851	C185	0.281600	0.308900	0.893000
H1541	H154	0.184800	0.313200	0.902200
C1861	C186	0.546000	0.338470	0.777350
H1551	H155	0.640400	0.326400	0.769700
C1871	C187	0.558200	0.384650	0.772540
H1561	H156	0.650800	0.391300	0.754400
C1881	C188	0.541300	0.409250	0.826530
C1891	C189	0.643600	0.409200	0.867900
H1571	H157	0.725100	0.393400	0.863900
C1901	C190	0.628800	0.432000	0.915000
H1581	H158	0.703200	0.432100	0.941900
C1911	C191	0.420100	0.454600	0.885700
H1591	H159	0.340000	0.470700	0.890700
C1921	C192	0.426300	0.433000	0.836200
H1601	H160	0.351900	0.434600	0.809400
N311	N31	0.361000	0.286250	0.926570
N321	N32	0.513300	0.454370	0.924850
Cd11	Cd1	0.250000	0.750000	0.500000
Cd21	Cd2	0.750000	0.250000	0.500000
Cd31	Cd3	0.750000	0.750000	0.000000
Cd41	Cd4	0.250000	0.250000	0.000000
Cd51	Cd5	0.000000	0.000000	0.500000
Cd61	Cd6	0.500000	0.500000	0.500000
Cd71	Cd7	0.000000	0.000000	0.000000
Cd81	Cd8	0.500000	0.500000	0.000000
