data_UZOBER_clean_PM
_symmetry_space_group_name_H-M	'P1'
_cell_length_a	7.816100
_cell_length_b	21.283000
_cell_length_c	8.341900
_cell_angle_alpha	90.000000
_cell_angle_beta	90.000000
_cell_angle_gamma	90.000000
_symmetry_Int_Tables_number 1

loop_
_symmetry_equiv_pos_as_xyz
'x,y,z'

loop_
_atom_site_label
_atom_site_type_symbol
_atom_site_fract_x
_atom_site_fract_y
_atom_site_fract_z
N11	N1	0.119100	0.075600	0.418000
H11	H1	0.388000	0.228000	0.376000
C11	C1	0.191400	0.127600	0.369400
H21	H2	0.208000	0.139800	0.262200
N21	N2	0.619100	0.575600	0.418000
H31	H3	0.888000	0.728000	0.376000
C21	C2	0.691400	0.627600	0.369400
H41	H4	0.708000	0.639800	0.262200
N31	N3	0.880900	0.924400	0.418000
H51	H5	0.612000	0.772000	0.376000
C31	C3	0.808600	0.872400	0.369400
H61	H6	0.792000	0.860200	0.262200
N41	N4	0.380900	0.424400	0.418000
H71	H7	0.112000	0.272000	0.376000
C41	C4	0.308600	0.372400	0.369400
H81	H8	0.292000	0.360200	0.262200
N51	N5	0.880900	0.075600	0.082000
H91	H9	0.612000	0.228000	0.124000
C51	C5	0.808600	0.127600	0.130600
H101	H10	0.792000	0.139800	0.237800
N61	N6	0.380900	0.575600	0.082000
H111	H11	0.112000	0.728000	0.124000
C61	C6	0.308600	0.627600	0.130600
H121	H12	0.292000	0.639800	0.237800
N71	N7	0.119100	0.924400	0.082000
H131	H13	0.388000	0.772000	0.124000
C71	C7	0.191400	0.872400	0.130600
H141	H14	0.208000	0.860200	0.237800
N81	N8	0.619100	0.424400	0.082000
H151	H15	0.888000	0.272000	0.124000
C81	C8	0.691400	0.372400	0.130600
H161	H16	0.708000	0.360200	0.237800
N91	N9	0.880900	0.924400	0.582000
H171	H17	0.612000	0.772000	0.624000
C91	C9	0.808600	0.872400	0.630600
H181	H18	0.792000	0.860200	0.737800
N101	N10	0.380900	0.424400	0.582000
H191	H19	0.112000	0.272000	0.624000
C101	C10	0.308600	0.372400	0.630600
H201	H20	0.292000	0.360200	0.737800
N111	N11	0.119100	0.075600	0.582000
H211	H21	0.388000	0.228000	0.624000
C111	C11	0.191400	0.127600	0.630600
H221	H22	0.208000	0.139800	0.737800
N121	N12	0.619100	0.575600	0.582000
H231	H23	0.888000	0.728000	0.624000
C121	C12	0.691400	0.627600	0.630600
H241	H24	0.708000	0.639800	0.737800
N131	N13	0.119100	0.924400	0.918000
H251	H25	0.388000	0.772000	0.876000
C131	C13	0.191400	0.872400	0.869400
H261	H26	0.208000	0.860200	0.762200
N141	N14	0.619100	0.424400	0.918000
H271	H27	0.888000	0.272000	0.876000
C141	C14	0.691400	0.372400	0.869400
H281	H28	0.708000	0.360200	0.762200
N151	N15	0.880900	0.075600	0.918000
H291	H29	0.612000	0.228000	0.876000
C151	C15	0.808600	0.127600	0.869400
H301	H30	0.792000	0.139800	0.762200
N161	N16	0.380900	0.575600	0.918000
H311	H31	0.112000	0.728000	0.876000
C161	C16	0.308600	0.627600	0.869400
H321	H32	0.292000	0.639800	0.762200
Ag11	Ag1	0.000000	0.000000	0.250000
Ag21	Ag2	0.500000	0.500000	0.250000
Ag31	Ag3	0.000000	0.000000	0.750000
Ag41	Ag4	0.500000	0.500000	0.750000
N171	N17	0.238000	0.160800	0.500000
C171	C17	0.318600	0.224600	0.500000
N181	N18	0.738000	0.660800	0.500000
C181	C18	0.818600	0.724600	0.500000
N191	N19	0.762000	0.839200	0.500000
C191	C19	0.681400	0.775400	0.500000
N201	N20	0.262000	0.339200	0.500000
C201	C20	0.181400	0.275400	0.500000
N211	N21	0.762000	0.160800	0.000000
C211	C21	0.681400	0.224600	0.000000
N221	N22	0.262000	0.660800	0.000000
C221	C22	0.181400	0.724600	0.000000
N231	N23	0.238000	0.839200	0.000000
C231	C23	0.318600	0.775400	0.000000
N241	N24	0.738000	0.339200	0.000000
C241	C24	0.818600	0.275400	0.000000
