data_UZUNAF01_clean_PM
_symmetry_space_group_name_H-M	'P1'
_cell_length_a	8.641000
_cell_length_b	13.153000
_cell_length_c	15.301800
_cell_angle_alpha	115.454000
_cell_angle_beta	94.964700
_cell_angle_gamma	90.000000
_symmetry_Int_Tables_number 1

loop_
_symmetry_equiv_pos_as_xyz
'x,y,z'

loop_
_atom_site_label
_atom_site_type_symbol
_atom_site_fract_x
_atom_site_fract_y
_atom_site_fract_z
Cu11	Cu1	0.038100	0.914870	0.420960
Cu21	Cu2	0.461900	0.493910	0.579040
Cu31	Cu3	0.961900	0.085130	0.579040
Cu41	Cu4	0.538100	0.506090	0.420960
H11	H1	0.176300	0.864100	0.227000
H21	H2	0.317700	0.735800	0.115000
H31	H3	0.273700	0.534900	0.245200
H41	H4	0.130700	0.668200	0.353800
H51	H5	0.403900	0.461800	0.096800
H61	H6	0.493700	0.924700	0.383200
H71	H7	0.568200	0.940500	0.299800
H81	H8	0.394700	0.085700	0.371600
H91	H9	0.488900	0.122300	0.473400
H101	H10	0.707000	0.166500	0.407400
H111	H11	0.598000	0.143900	0.313400
H121	H12	0.323700	0.637100	0.773000
H131	H13	0.182300	0.620800	0.885000
H141	H14	0.226300	0.289700	0.754800
H151	H15	0.369300	0.314400	0.646200
H161	H16	0.096100	0.365000	0.903200
H171	H17	0.006300	0.541500	0.616800
H181	H18	0.931800	0.640700	0.700200
H191	H19	0.105300	0.714100	0.628400
H201	H20	0.011100	0.648900	0.526600
H211	H21	0.793000	0.759100	0.592600
H221	H22	0.902000	0.830500	0.686600
H231	H23	0.823700	0.135900	0.773000
H241	H24	0.682300	0.264200	0.885000
H251	H25	0.726300	0.465100	0.754800
H261	H26	0.869300	0.331800	0.646200
H271	H27	0.596100	0.538200	0.903200
H281	H28	0.506300	0.075300	0.616800
H291	H29	0.431800	0.059500	0.700200
H301	H30	0.605300	0.914300	0.628400
H311	H31	0.511100	0.877700	0.526600
H321	H32	0.293000	0.833500	0.592600
H331	H33	0.402000	0.856100	0.686600
H341	H34	0.676300	0.362900	0.227000
H351	H35	0.817700	0.379200	0.115000
H361	H36	0.773700	0.710300	0.245200
H371	H37	0.630700	0.685600	0.353800
H381	H38	0.903900	0.635000	0.096800
H391	H39	0.993700	0.458500	0.383200
H401	H40	0.068200	0.359300	0.299800
H411	H41	0.894700	0.285900	0.371600
H421	H42	0.988900	0.351100	0.473400
H431	H43	0.207000	0.240900	0.407400
H441	H44	0.098000	0.169500	0.313400
C11	C1	0.196200	0.796700	0.231000
C21	C2	0.280500	0.720000	0.163400
C31	C3	0.310500	0.619470	0.166740
C41	C4	0.254500	0.601680	0.239760
C51	C5	0.169800	0.682400	0.305200
C61	C6	0.396700	0.531700	0.095400
C71	C7	0.724500	0.974900	0.418800
C81	C8	0.563500	0.972700	0.369600
C91	C9	0.497900	0.091400	0.404200
C101	C10	0.600800	0.170500	0.383200
C111	C11	0.057200	0.134100	0.427000
C121	C12	0.303800	0.565700	0.769000
C131	C13	0.219500	0.556600	0.836600
C141	C14	0.189500	0.452730	0.833260
C151	C15	0.245500	0.361920	0.760240
C161	C16	0.330200	0.377200	0.694800
C171	C17	0.103300	0.436300	0.904600
C181	C18	0.775500	0.556100	0.581200
C191	C19	0.936500	0.603100	0.630400
C201	C20	0.002100	0.687200	0.595800
C211	C21	0.899200	0.787300	0.616800
C221	C22	0.442800	0.707100	0.573000
C231	C23	0.803800	0.203300	0.769000
C241	C24	0.719500	0.280000	0.836600
C251	C25	0.689500	0.380530	0.833260
C261	C26	0.745500	0.398320	0.760240
C271	C27	0.830200	0.317600	0.694800
C281	C28	0.603300	0.468300	0.904600
C291	C29	0.275500	0.025100	0.581200
C301	C30	0.436500	0.027300	0.630400
C311	C31	0.502100	0.908600	0.595800
C321	C32	0.399200	0.829500	0.616800
C331	C33	0.942800	0.865900	0.573000
C341	C34	0.696200	0.434300	0.231000
C351	C35	0.780500	0.443400	0.163400
C361	C36	0.810500	0.547270	0.166740
C371	C37	0.754500	0.638080	0.239760
C381	C38	0.669800	0.622800	0.305200
C391	C39	0.896700	0.563700	0.095400
C401	C40	0.224500	0.443900	0.418800
C411	C41	0.063500	0.396900	0.369600
C421	C42	0.997900	0.312800	0.404200
C431	C43	0.100800	0.212700	0.383200
C441	C44	0.557200	0.292900	0.427000
N11	N1	0.141100	0.780220	0.302040
N21	N2	0.462400	0.549000	0.030800
N31	N3	0.358900	0.478180	0.697960
N41	N4	0.037600	0.518200	0.969200
N51	N5	0.858900	0.219780	0.697960
N61	N6	0.537600	0.451000	0.969200
N71	N7	0.641100	0.521820	0.302040
N81	N8	0.962400	0.481800	0.030800
O11	O1	0.818800	0.905490	0.368180
O21	O2	0.074100	0.031100	0.375400
O31	O3	0.756000	0.046410	0.504220
O41	O4	0.013100	0.175170	0.509340
O51	O5	0.681200	0.537310	0.631820
O61	O6	0.425900	0.655700	0.624600
O71	O7	0.744000	0.542190	0.495780
O81	O8	0.486900	0.665830	0.490660
O91	O9	0.181200	0.094510	0.631820
O101	O10	0.925900	0.968900	0.624600
O111	O11	0.244000	0.953590	0.495780
O121	O12	0.986900	0.824830	0.490660
O131	O13	0.318800	0.462690	0.368180
O141	O14	0.574100	0.344300	0.375400
O151	O15	0.256000	0.457810	0.504220
O161	O16	0.513100	0.334170	0.509340
