data_VACFOV_clean_h_PM
_symmetry_space_group_name_H-M	'P1'
_cell_length_a	12.032000
_cell_length_b	15.087000
_cell_length_c	15.087000
_cell_angle_alpha	120.000000
_cell_angle_beta	90.000000
_cell_angle_gamma	90.000000
_symmetry_Int_Tables_number 1

loop_
_symmetry_equiv_pos_as_xyz
'x,y,z'

loop_
_atom_site_label
_atom_site_type_symbol
_atom_site_fract_x
_atom_site_fract_y
_atom_site_fract_z
In11	In1	0.000000	0.500000	0.500000
In21	In2	0.666670	0.000000	0.500000
In31	In3	0.333330	0.500000	0.000000
C11	C1	0.848300	0.490500	0.619200
C21	C2	0.753700	0.495500	0.689200
C31	C3	0.713600	0.586200	0.765500
C41	C4	0.709100	0.400400	0.671600
C51	C5	0.514970	0.128700	0.509500
C61	C6	0.420370	0.193700	0.504500
C71	C7	0.380270	0.179300	0.413800
C81	C8	0.375770	0.271200	0.599600
C91	C9	0.181630	0.380800	0.871300
C101	C10	0.087030	0.310800	0.806300
C111	C11	0.046930	0.234500	0.820700
C121	C12	0.042430	0.328400	0.728800
C131	C13	0.848300	0.509500	0.380800
C141	C14	0.753700	0.504500	0.310800
C151	C15	0.713600	0.413800	0.234500
C161	C16	0.709100	0.599600	0.328400
C171	C17	0.514970	0.871300	0.490500
C181	C18	0.420370	0.806300	0.495500
C191	C19	0.380270	0.820700	0.586200
C201	C20	0.375770	0.728800	0.400400
C211	C21	0.181630	0.619200	0.128700
C221	C22	0.087030	0.689200	0.193700
C231	C23	0.046930	0.765500	0.179300
C241	C24	0.042430	0.671600	0.271200
C251	C25	0.818370	0.871300	0.380800
C261	C26	0.912970	0.806300	0.310800
C271	C27	0.953070	0.820700	0.234500
C281	C28	0.957570	0.728800	0.328400
C291	C29	0.151700	0.619200	0.490500
C301	C30	0.246300	0.689200	0.495500
C311	C31	0.286400	0.765500	0.586200
C321	C32	0.290900	0.671600	0.400400
C331	C33	0.485030	0.509500	0.128700
C341	C34	0.579630	0.504500	0.193700
C351	C35	0.619730	0.413800	0.179300
C361	C36	0.624230	0.599600	0.271200
C371	C37	0.818370	0.128700	0.619200
C381	C38	0.912970	0.193700	0.689200
C391	C39	0.953070	0.179300	0.765500
C401	C40	0.957570	0.271200	0.671600
C411	C41	0.151700	0.380800	0.509500
C421	C42	0.246300	0.310800	0.504500
C431	C43	0.286400	0.234500	0.413800
C441	C44	0.290900	0.328400	0.599600
C451	C45	0.485030	0.490500	0.871300
C461	C46	0.579630	0.495500	0.806300
C471	C47	0.619730	0.586200	0.820700
C481	C48	0.624230	0.400400	0.728800
O11	O1	0.897100	0.578400	0.645200
O21	O2	0.874200	0.413500	0.541600
O31	O3	0.563770	0.066800	0.421600
O41	O4	0.540870	0.128100	0.586500
O51	O5	0.230430	0.354800	0.933200
O61	O6	0.207530	0.458400	0.871900
O71	O7	0.897100	0.421600	0.354800
O81	O8	0.874200	0.586500	0.458400
O91	O9	0.563770	0.933200	0.578400
O101	O10	0.540870	0.871900	0.413500
O111	O11	0.230430	0.645200	0.066800
O121	O12	0.207530	0.541600	0.128100
O131	O13	0.769570	0.933200	0.354800
O141	O14	0.792470	0.871900	0.458400
O151	O15	0.102900	0.645200	0.578400
O161	O16	0.125800	0.541600	0.413500
O171	O17	0.436230	0.421600	0.066800
O181	O18	0.459130	0.586500	0.128100
O191	O19	0.769570	0.066800	0.645200
O201	O20	0.792470	0.128100	0.541600
O211	O21	0.102900	0.354800	0.421600
O221	O22	0.125800	0.458400	0.586500
O231	O23	0.436230	0.578400	0.933200
O241	O24	0.459130	0.413500	0.871900
H11	H1	0.756230	0.660970	0.783890
H21	H2	0.745830	0.325260	0.609190
H31	H3	0.422900	0.122920	0.339030
H41	H4	0.412500	0.283930	0.674740
H51	H5	0.089560	0.216110	0.877080
H61	H6	0.079160	0.390810	0.716080
H71	H7	0.756230	0.339030	0.216110
H81	H8	0.745830	0.674740	0.390810
H91	H9	0.422900	0.877080	0.660970
H101	H10	0.412500	0.716070	0.325260
H111	H11	0.089560	0.783890	0.122920
H121	H12	0.079160	0.609190	0.283920
H131	H13	0.911280	0.876830	0.215290
H141	H14	0.921440	0.715460	0.390620
H151	H15	0.244600	0.784720	0.661550
H161	H16	0.254770	0.609380	0.324840
H171	H17	0.577100	0.339030	0.122920
H181	H18	0.587500	0.674740	0.283930
H191	H19	0.911280	0.123170	0.784710
H201	H20	0.921440	0.284540	0.609380
H211	H21	0.244600	0.215280	0.338450
H221	H22	0.254770	0.390620	0.675160
H231	H23	0.577930	0.661550	0.876830
H241	H24	0.588100	0.324840	0.715460
