data_VAFWAB_clean_PM
_symmetry_space_group_name_H-M	'P1'
_cell_length_a	10.258900
_cell_length_b	29.585100
_cell_length_c	13.757800
_cell_angle_alpha	90.000000
_cell_angle_beta	103.303000
_cell_angle_gamma	90.000000
_symmetry_Int_Tables_number 1

loop_
_symmetry_equiv_pos_as_xyz
'x,y,z'

loop_
_atom_site_label
_atom_site_type_symbol
_atom_site_fract_x
_atom_site_fract_y
_atom_site_fract_z
Zn11	Zn1	0.796220	0.268380	0.268460
Zn21	Zn2	0.686840	0.094470	0.093290
Zn31	Zn3	0.820150	0.081980	0.394480
Zn41	Zn4	0.728000	0.162140	0.615760
Zn51	Zn5	0.843740	0.164730	0.914340
Zn61	Zn6	0.251910	0.014750	0.241180
P11	P1	0.826870	0.188730	0.125210
H11	H1	0.897700	0.172900	0.210900
P21	P2	0.719060	0.185170	0.395260
H21	H2	0.620800	0.176700	0.316900
P31	P3	0.959690	0.049080	0.224770
H31	H3	0.937900	0.005800	0.238200
P41	P4	0.543240	0.049490	0.248850
H41	H4	0.546600	0.009600	0.206400
P51	P5	0.509190	0.306510	0.258900
H51	H5	0.493200	0.263300	0.277600
P61	P6	0.084540	0.292990	0.269580
H61	H6	0.070900	0.252200	0.229400
P71	P7	0.820550	0.060200	0.614880
H71	H7	0.916200	0.070800	0.693500
P81	P8	0.681690	0.070330	0.879990
H81	H8	0.602900	0.082100	0.793700
O11	O1	0.791000	0.237460	0.143000
O21	O2	0.700800	0.160150	0.096200
O31	O3	0.914000	0.185480	0.049900
O41	O4	0.782100	0.229660	0.377000
O51	O5	0.658600	0.189420	0.485300
O61	O6	0.819100	0.146950	0.404800
O71	O7	0.852900	0.064500	0.137700
O81	O8	0.094800	0.052470	0.199600
O91	O9	0.958200	0.072760	0.321300
O101	O10	0.554600	0.084880	0.171400
O111	O11	0.409600	0.052900	0.277100
O121	O12	0.657300	0.050570	0.339200
O131	O13	0.408200	0.318140	0.165000
O141	O14	0.651200	0.312160	0.243100
O151	O15	0.494800	0.332840	0.349800
O161	O16	0.090700	0.325670	0.186500
O171	O17	0.211700	0.292270	0.350500
O181	O18	0.960800	0.301600	0.309000
O191	O19	0.716700	0.097030	0.602200
O201	O20	0.884700	0.056600	0.526700
O211	O21	0.764400	0.014960	0.636400
O221	O22	0.799500	0.102250	0.899500
O231	O23	0.726600	0.022320	0.869200
O241	O24	0.599100	0.073870	0.958670
Zn71	Zn7	0.703780	0.768380	0.231540
Zn81	Zn8	0.813160	0.594470	0.406710
Zn91	Zn9	0.679850	0.581980	0.105520
Zn101	Zn10	0.772000	0.662140	0.884240
Zn111	Zn11	0.656260	0.664730	0.585660
Zn121	Zn12	0.248090	0.514750	0.258820
P91	P9	0.673130	0.688730	0.374790
H91	H9	0.602300	0.672900	0.289100
P101	P10	0.780940	0.685170	0.104740
H101	H10	0.879200	0.676700	0.183100
P111	P11	0.540310	0.549080	0.275230
H111	H11	0.562100	0.505800	0.261800
P121	P12	0.956760	0.549490	0.251150
H121	H12	0.953400	0.509600	0.293600
P131	P13	0.990810	0.806510	0.241100
H131	H13	0.006800	0.763300	0.222400
P141	P14	0.415460	0.792990	0.230420
H141	H14	0.429100	0.752200	0.270600
P151	P15	0.679450	0.560200	0.885120
H151	H15	0.583800	0.570800	0.806500
P161	P16	0.818310	0.570330	0.620010
H161	H16	0.897100	0.582100	0.706300
O251	O25	0.709000	0.737460	0.357000
O261	O26	0.799200	0.660150	0.403800
O271	O27	0.586000	0.685480	0.450100
O281	O28	0.717900	0.729660	0.123000
O291	O29	0.841400	0.689420	0.014700
O301	O30	0.680900	0.646950	0.095200
O311	O31	0.647100	0.564500	0.362300
O321	O32	0.405200	0.552470	0.300400
O331	O33	0.541800	0.572760	0.178700
O341	O34	0.945400	0.584880	0.328600
O351	O35	0.090400	0.552900	0.222900
O361	O36	0.842700	0.550570	0.160800
O371	O37	0.091800	0.818140	0.335000
O381	O38	0.848800	0.812160	0.256900
O391	O39	0.005200	0.832840	0.150200
O401	O40	0.409300	0.825670	0.313500
O411	O41	0.288300	0.792270	0.149500
O421	O42	0.539200	0.801600	0.191000
O431	O43	0.783300	0.597030	0.897800
O441	O44	0.615300	0.556600	0.973300
O451	O45	0.735600	0.514960	0.863600
O461	O46	0.700500	0.602250	0.600500
O471	O47	0.773400	0.522320	0.630800
O481	O48	0.900900	0.573870	0.541330
Zn131	Zn13	0.203780	0.731620	0.731540
Zn141	Zn14	0.313160	0.905530	0.906710
Zn151	Zn15	0.179850	0.918020	0.605520
Zn161	Zn16	0.272000	0.837860	0.384240
Zn171	Zn17	0.156260	0.835270	0.085660
Zn181	Zn18	0.748090	0.985250	0.758820
P171	P17	0.173130	0.811270	0.874790
H171	H17	0.102300	0.827100	0.789100
P181	P18	0.280940	0.814830	0.604740
H181	H18	0.379200	0.823300	0.683100
P191	P19	0.040310	0.950920	0.775230
H191	H19	0.062100	0.994200	0.761800
P201	P20	0.456760	0.950510	0.751150
H201	H20	0.453400	0.990400	0.793600
P211	P21	0.490810	0.693490	0.741100
H211	H21	0.506800	0.736700	0.722400
P221	P22	0.915460	0.707010	0.730420
H221	H22	0.929100	0.747800	0.770600
P231	P23	0.179450	0.939800	0.385120
H231	H23	0.083800	0.929200	0.306500
P241	P24	0.318310	0.929670	0.120010
H241	H24	0.397100	0.917900	0.206300
O491	O49	0.209000	0.762540	0.857000
O501	O50	0.299200	0.839850	0.903800
O511	O51	0.086000	0.814520	0.950100
O521	O52	0.217900	0.770340	0.623000
O531	O53	0.341400	0.810580	0.514700
O541	O54	0.180900	0.853050	0.595200
O551	O55	0.147100	0.935500	0.862300
O561	O56	0.905200	0.947530	0.800400
O571	O57	0.041800	0.927240	0.678700
O581	O58	0.445400	0.915120	0.828600
O591	O59	0.590400	0.947100	0.722900
O601	O60	0.342700	0.949430	0.660800
O611	O61	0.591800	0.681860	0.835000
O621	O62	0.348800	0.687840	0.756900
O631	O63	0.505200	0.667160	0.650200
O641	O64	0.909300	0.674330	0.813500
O651	O65	0.788300	0.707730	0.649500
O661	O66	0.039200	0.698400	0.691000
O671	O67	0.283300	0.902970	0.397800
O681	O68	0.115300	0.943400	0.473300
O691	O69	0.235600	0.985040	0.363600
O701	O70	0.200500	0.897750	0.100500
O711	O71	0.273400	0.977680	0.130800
O721	O72	0.400900	0.926130	0.041330
Zn191	Zn19	0.296220	0.231620	0.768460
Zn201	Zn20	0.186840	0.405530	0.593290
Zn211	Zn21	0.320150	0.418020	0.894480
Zn221	Zn22	0.228000	0.337860	0.115760
Zn231	Zn23	0.343740	0.335270	0.414340
Zn241	Zn24	0.751910	0.485250	0.741180
P251	P25	0.326870	0.311270	0.625210
H251	H25	0.397700	0.327100	0.710900
P261	P26	0.219060	0.314830	0.895260
H261	H26	0.120800	0.323300	0.816900
P271	P27	0.459690	0.450920	0.724770
H271	H27	0.437900	0.494200	0.738200
P281	P28	0.043240	0.450510	0.748850
H281	H28	0.046600	0.490400	0.706400
P291	P29	0.009190	0.193490	0.758900
H291	H29	0.993200	0.236700	0.777600
P301	P30	0.584540	0.207010	0.769580
H301	H30	0.570900	0.247800	0.729400
P311	P31	0.320550	0.439800	0.114880
H311	H31	0.416200	0.429200	0.193500
P321	P32	0.181690	0.429670	0.379990
H321	H32	0.102900	0.417900	0.293700
O731	O73	0.291000	0.262540	0.643000
O741	O74	0.200800	0.339850	0.596200
O751	O75	0.414000	0.314520	0.549900
O761	O76	0.282100	0.270340	0.877000
O771	O77	0.158600	0.310580	0.985300
O781	O78	0.319100	0.353050	0.904800
O791	O79	0.352900	0.435500	0.637700
O801	O80	0.594800	0.447530	0.699600
O811	O81	0.458200	0.427240	0.821300
O821	O82	0.054600	0.415120	0.671400
O831	O83	0.909600	0.447100	0.777100
O841	O84	0.157300	0.449430	0.839200
O851	O85	0.908200	0.181860	0.665000
O861	O86	0.151200	0.187840	0.743100
O871	O87	0.994800	0.167160	0.849800
O881	O88	0.590700	0.174330	0.686500
O891	O89	0.711700	0.207730	0.850500
O901	O90	0.460800	0.198400	0.809000
O911	O91	0.216700	0.402970	0.102200
O921	O92	0.384700	0.443400	0.026700
O931	O93	0.264400	0.485040	0.136400
O941	O94	0.299500	0.397750	0.399500
O951	O95	0.226600	0.477680	0.369200
O961	O96	0.099100	0.426130	0.458670
