data_VAGBUD_clean_PM
_symmetry_space_group_name_H-M	'P1'
_cell_length_a	9.632300
_cell_length_b	16.676000
_cell_length_c	21.182000
_cell_angle_alpha	104.080000
_cell_angle_beta	100.390000
_cell_angle_gamma	97.030000
_symmetry_Int_Tables_number 1

loop_
_symmetry_equiv_pos_as_xyz
'x,y,z'

loop_
_atom_site_label
_atom_site_type_symbol
_atom_site_fract_x
_atom_site_fract_y
_atom_site_fract_z
Gd11	Gd1	0.776640	0.013500	0.497310
Cu11	Cu1	0.462000	0.317220	0.098840
Cu21	Cu2	0.513740	0.442410	0.040370
Cu31	Cu3	0.319380	0.444550	0.122050
Cu41	Cu4	0.254960	0.326820	0.001690
I11	I1	0.588710	0.477540	0.174260
I21	I2	0.489670	0.279620	0.970620
I31	I3	0.195930	0.288440	0.112580
I41	I4	0.262200	0.489780	0.999990
O11	O1	0.859300	0.083600	0.422110
O21	O2	0.076600	0.050900	0.439900
O31	O3	0.951600	0.124500	0.572070
O41	O4	0.170400	0.091400	0.586770
O51	O5	0.669400	0.043200	0.590080
O61	O6	0.441100	0.984300	0.570230
N11	N1	0.597800	0.253400	0.141200
N21	N2	0.792000	0.474100	0.831600
N31	N3	0.077300	0.261900	0.932400
C11	C1	0.561800	0.199300	0.174900
H11	H1	0.465800	0.186200	0.175900
C21	C2	0.659600	0.161600	0.208600
H21	H2	0.627500	0.123200	0.230300
C31	C3	0.803900	0.180100	0.210300
C41	C4	0.835500	0.233500	0.173000
H31	H3	0.930100	0.246500	0.169700
C51	C5	0.735100	0.268300	0.140800
H41	H4	0.764700	0.304700	0.116900
C61	C6	0.909200	0.143000	0.246200
C71	C7	0.895300	0.126200	0.306400
H51	H5	0.814000	0.136700	0.322700
C81	C8	0.998400	0.094400	0.342400
C91	C9	0.120600	0.077600	0.317900
H61	H6	0.191000	0.056200	0.341800
C101	C10	0.135900	0.092600	0.258800
H71	H7	0.217200	0.081800	0.242600
C111	C11	0.030800	0.124000	0.222400
H81	H8	0.041700	0.132500	0.181600
C121	C12	0.978100	0.074700	0.406600
C131	C13	0.738000	0.399000	0.789000
H91	H9	0.638800	0.384200	0.775700
C141	C14	0.819200	0.341600	0.763100
H101	H10	0.774900	0.290100	0.733600
C151	C15	0.965800	0.361500	0.781500
C161	C16	0.022200	0.440000	0.826300
H111	H11	0.121000	0.456100	0.841000
C171	C17	0.934700	0.493500	0.848800
H121	H12	0.976400	0.546000	0.877500
C181	C18	0.062300	0.304700	0.756900
C191	C19	0.024700	0.246500	0.695900
H131	H13	0.934000	0.241200	0.669600
C201	C20	0.118600	0.194500	0.671900
C211	C21	0.253800	0.203000	0.711100
H141	H14	0.317300	0.169300	0.695700
C221	C22	0.296100	0.261600	0.773500
H151	H15	0.387500	0.267600	0.799500
C231	C23	0.199300	0.310600	0.795800
H161	H16	0.225900	0.348600	0.837900
C241	C24	0.076000	0.132400	0.605000
C251	C25	0.078000	0.193200	0.884500
H171	H17	0.165300	0.175500	0.882100
C261	C26	0.960100	0.147600	0.839100
H181	H18	0.968400	0.101100	0.806200
C271	C27	0.825600	0.170500	0.841600
C281	C28	0.823900	0.241600	0.891700
H191	H19	0.737900	0.259900	0.896400
C291	C29	0.951000	0.284900	0.934400
H201	H20	0.947800	0.333400	0.966600
C301	C30	0.693300	0.122700	0.795300
C311	C31	0.686700	0.094700	0.726500
H211	H21	0.768000	0.106900	0.710300
C321	C32	0.562500	0.049700	0.682500
C331	C33	0.440000	0.030200	0.705900
H221	H22	0.355700	0.000100	0.676500
C341	C34	0.446000	0.056600	0.774300
H231	H23	0.365700	0.042700	0.790700
C351	C35	0.570500	0.103300	0.818000
H241	H24	0.571700	0.121900	0.863200
C361	C36	0.557000	0.023500	0.608900
Gd21	Gd2	0.223360	0.986500	0.502690
Cu51	Cu5	0.538000	0.682780	0.901160
Cu61	Cu6	0.486260	0.557590	0.959630
Cu71	Cu7	0.680620	0.555450	0.877950
Cu81	Cu8	0.745040	0.673180	0.998310
I51	I5	0.411290	0.522460	0.825740
I61	I6	0.510330	0.720380	0.029380
I71	I7	0.804070	0.711560	0.887420
I81	I8	0.737800	0.510220	0.000010
O71	O7	0.140700	0.916400	0.577890
O81	O8	0.923400	0.949100	0.560100
O91	O9	0.048400	0.875500	0.427930
O101	O10	0.829600	0.908600	0.413230
O111	O11	0.330600	0.956800	0.409920
O121	O12	0.558900	0.015700	0.429770
N41	N4	0.402200	0.746600	0.858800
N51	N5	0.208000	0.525900	0.168400
N61	N6	0.922700	0.738100	0.067600
C371	C37	0.438200	0.800700	0.825100
H251	H25	0.534200	0.813800	0.824100
C381	C38	0.340400	0.838400	0.791400
H261	H26	0.372500	0.876800	0.769700
C391	C39	0.196100	0.819900	0.789700
C401	C40	0.164500	0.766500	0.827000
H271	H27	0.069900	0.753500	0.830300
C411	C41	0.264900	0.731700	0.859200
H281	H28	0.235300	0.695300	0.883100
C421	C42	0.090800	0.857000	0.753800
C431	C43	0.104700	0.873800	0.693600
H291	H29	0.186000	0.863300	0.677300
C441	C44	0.001600	0.905600	0.657600
C451	C45	0.879400	0.922400	0.682100
H301	H30	0.809000	0.943800	0.658200
C461	C46	0.864100	0.907400	0.741200
H311	H31	0.782800	0.918200	0.757400
C471	C47	0.969200	0.876000	0.777600
H321	H32	0.958300	0.867500	0.818400
C481	C48	0.021900	0.925300	0.593400
C491	C49	0.262000	0.601000	0.211000
H331	H33	0.361200	0.615800	0.224300
C501	C50	0.180800	0.658400	0.236900
H341	H34	0.225100	0.709900	0.266400
C511	C51	0.034200	0.638500	0.218500
C521	C52	0.977800	0.560000	0.173700
H351	H35	0.879000	0.543900	0.159000
C531	C53	0.065300	0.506500	0.151200
H361	H36	0.023600	0.454000	0.122500
C541	C54	0.937700	0.695300	0.243100
C551	C55	0.975300	0.753500	0.304100
H371	H37	0.066000	0.758800	0.330400
C561	C56	0.881400	0.805500	0.328100
C571	C57	0.746200	0.797000	0.288900
H381	H38	0.682700	0.830700	0.304300
C581	C58	0.703900	0.738400	0.226500
H391	H39	0.612500	0.732400	0.200500
C591	C59	0.800700	0.689400	0.204200
H401	H40	0.774100	0.651400	0.162100
C601	C60	0.924000	0.867600	0.395000
C611	C61	0.922000	0.806800	0.115500
H411	H41	0.834700	0.824500	0.117900
C621	C62	0.039900	0.852400	0.160900
H421	H42	0.031600	0.898900	0.193800
C631	C63	0.174400	0.829500	0.158400
C641	C64	0.176100	0.758400	0.108300
H431	H43	0.262100	0.740100	0.103600
C651	C65	0.049000	0.715100	0.065600
H441	H44	0.052200	0.666600	0.033400
C661	C66	0.306700	0.877300	0.204700
C671	C67	0.313300	0.905300	0.273500
H451	H45	0.232000	0.893100	0.289700
C681	C68	0.437500	0.950300	0.317500
C691	C69	0.560000	0.969800	0.294100
H461	H46	0.644300	0.999900	0.323500
C701	C70	0.554000	0.943400	0.225700
H471	H47	0.634300	0.957300	0.209300
C711	C71	0.429500	0.896700	0.182000
H481	H48	0.428300	0.878100	0.136800
C721	C72	0.443000	0.976500	0.391100
