data_VAGJET_clean_PM
_symmetry_space_group_name_H-M	'P1'
_cell_length_a	4.925000
_cell_length_b	22.097200
_cell_length_c	12.903800
_cell_angle_alpha	90.000000
_cell_angle_beta	99.245000
_cell_angle_gamma	90.000000
_symmetry_Int_Tables_number 1

loop_
_symmetry_equiv_pos_as_xyz
'x,y,z'

loop_
_atom_site_label
_atom_site_type_symbol
_atom_site_fract_x
_atom_site_fract_y
_atom_site_fract_z
C11	C1	0.590500	0.775700	0.050800
H11	H1	0.791000	0.772000	0.059200
H21	H2	0.540000	0.815000	0.018000
C21	C2	0.128200	0.488700	0.231800
H31	H3	0.027000	0.502700	0.284000
H41	H4	0.302000	0.474300	0.266000
C31	C3	0.973900	0.438100	0.170400
C41	C4	0.504500	0.774400	0.157400
O11	O1	0.533300	0.655300	0.015500
O21	O2	0.127400	0.724600	0.953100
O31	O3	0.535000	0.722100	0.858100
O41	O4	0.894000	0.576550	0.105500
O51	O5	0.313800	0.524500	0.054000
O61	O6	0.363900	0.595800	0.210400
O71	O7	0.720800	0.433300	0.166000
O81	O8	0.120100	0.402000	0.122600
O91	O9	0.431900	0.824200	0.193700
O101	O10	0.505700	0.725900	0.207300
O111	O11	0.980500	0.660500	0.287200
O121	O12	0.996000	0.702400	0.196200
O131	O13	0.846000	0.619600	0.335000
P11	P1	0.434900	0.715740	0.964640
P21	P2	0.179500	0.550410	0.144350
Zn11	Zn1	0.672990	0.642960	0.172890
Zn21	Zn2	0.592320	0.566760	0.968150
Zn31	Zn3	0.883100	0.686600	0.840280
C51	C5	0.909500	0.275700	0.449200
H51	H5	0.709000	0.272000	0.440800
H61	H6	0.960000	0.315000	0.482000
C61	C6	0.371800	0.988700	0.268200
H71	H7	0.473000	0.002700	0.216000
H81	H8	0.198000	0.974300	0.234000
C71	C7	0.526100	0.938100	0.329600
C81	C8	0.995500	0.274400	0.342600
O141	O14	0.966700	0.155300	0.484500
O151	O15	0.372600	0.224600	0.546900
O161	O16	0.965000	0.222100	0.641900
O171	O17	0.606000	0.076550	0.394500
O181	O18	0.186200	0.024500	0.446000
O191	O19	0.136100	0.095800	0.289600
O201	O20	0.779200	0.933300	0.334000
O211	O21	0.379900	0.902000	0.377400
O221	O22	0.068100	0.324200	0.306300
O231	O23	0.994300	0.225900	0.292700
O241	O24	0.519500	0.160500	0.212800
O251	O25	0.504000	0.202400	0.303800
O261	O26	0.654000	0.119600	0.165000
P31	P3	0.065100	0.215740	0.535360
P41	P4	0.320500	0.050410	0.355650
Zn41	Zn4	0.827010	0.142960	0.327110
Zn51	Zn5	0.907680	0.066760	0.531850
Zn61	Zn6	0.616900	0.186600	0.659720
C91	C9	0.409500	0.224300	0.949200
H91	H9	0.209000	0.228000	0.940800
H101	H10	0.460000	0.185000	0.982000
C101	C10	0.871800	0.511300	0.768200
H111	H11	0.973000	0.497300	0.716000
H121	H12	0.698000	0.525700	0.734000
C111	C11	0.026100	0.561900	0.829600
C121	C12	0.495500	0.225600	0.842600
O271	O27	0.466700	0.344700	0.984500
O281	O28	0.872600	0.275400	0.046900
O291	O29	0.465000	0.277900	0.141900
O301	O30	0.106000	0.423450	0.894500
O311	O31	0.686200	0.475500	0.946000
O321	O32	0.636100	0.404200	0.789600
O331	O33	0.279200	0.566700	0.834000
O341	O34	0.879900	0.598000	0.877400
O351	O35	0.568100	0.175800	0.806300
O361	O36	0.494300	0.274100	0.792700
O371	O37	0.019500	0.339500	0.712800
O381	O38	0.004000	0.297600	0.803800
O391	O39	0.154000	0.380400	0.665000
P51	P5	0.565100	0.284260	0.035360
P61	P6	0.820500	0.449590	0.855650
Zn71	Zn7	0.327010	0.357040	0.827110
Zn81	Zn8	0.407680	0.433240	0.031850
Zn91	Zn9	0.116900	0.313400	0.159720
C131	C13	0.090500	0.724300	0.550800
H131	H13	0.291000	0.728000	0.559200
H141	H14	0.040000	0.685000	0.518000
C141	C14	0.628200	0.011300	0.731800
H151	H15	0.527000	0.997300	0.784000
H161	H16	0.802000	0.025700	0.766000
C151	C15	0.473900	0.061900	0.670400
C161	C16	0.004500	0.725600	0.657400
O401	O40	0.033300	0.844700	0.515500
O411	O41	0.627400	0.775400	0.453100
O421	O42	0.035000	0.777900	0.358100
O431	O43	0.394000	0.923450	0.605500
O441	O44	0.813800	0.975500	0.554000
O451	O45	0.863900	0.904200	0.710400
O461	O46	0.220800	0.066700	0.666000
O471	O47	0.620100	0.098000	0.622600
O481	O48	0.931900	0.675800	0.693700
O491	O49	0.005700	0.774100	0.707300
O501	O50	0.480500	0.839500	0.787200
O511	O51	0.496000	0.797600	0.696200
O521	O52	0.346000	0.880400	0.835000
P71	P7	0.934900	0.784260	0.464640
P81	P8	0.679500	0.949590	0.644350
Zn101	Zn10	0.172990	0.857040	0.672890
Zn111	Zn11	0.092320	0.933240	0.468150
Zn121	Zn12	0.383100	0.813400	0.340280
