data_VAGKOF_clean_PM
_symmetry_space_group_name_H-M	'P1'
_cell_length_a	7.382000
_cell_length_b	24.644000
_cell_length_c	31.578000
_cell_angle_alpha	90.170000
_cell_angle_beta	90.000000
_cell_angle_gamma	90.000000
_symmetry_Int_Tables_number 1

loop_
_symmetry_equiv_pos_as_xyz
'x,y,z'

loop_
_atom_site_label
_atom_site_type_symbol
_atom_site_fract_x
_atom_site_fract_y
_atom_site_fract_z
Ca11	Ca1	0.453080	0.235270	0.770650
Ca21	Ca2	0.917340	0.753300	0.768640
Ca31	Ca3	0.453080	0.764730	0.729350
Ca41	Ca4	0.917340	0.246700	0.731360
Ca51	Ca5	0.546920	0.764730	0.229350
Ca61	Ca6	0.082660	0.246700	0.231360
Ca71	Ca7	0.546920	0.235270	0.270650
Ca81	Ca8	0.082660	0.753300	0.268640
H11	H1	0.519860	0.028280	0.690510
H21	H2	0.318250	0.177580	0.639220
H31	H3	0.105440	0.127470	0.594700
H41	H4	0.309590	0.977810	0.647470
H51	H5	0.021150	0.017630	0.684000
H61	H6	0.942100	0.944870	0.735270
H71	H7	0.713160	0.854020	0.632800
H81	H8	0.811640	0.924390	0.582160
H91	H9	0.029240	0.606300	0.710370
H101	H10	0.553510	0.610940	0.631750
H111	H11	0.662910	0.533460	0.591690
H121	H12	0.139710	0.526730	0.670710
H131	H13	0.859790	0.433540	0.674550
H141	H14	0.987420	0.363990	0.720930
H151	H15	0.481250	0.364820	0.648650
H161	H16	0.348690	0.430750	0.599290
H171	H17	0.141660	0.354780	0.918980
H181	H18	0.938540	0.337210	0.979130
H191	H19	0.758620	0.189550	0.918820
H201	H20	0.977050	0.205020	0.861000
H211	H21	0.686350	0.303720	0.073580
H221	H22	0.911740	0.302820	0.130860
H231	H23	0.255140	0.197770	0.058000
H241	H24	0.038640	0.201460	0.998690
H251	H25	0.421730	0.328070	0.835540
H261	H26	0.426710	0.211520	0.159280
H271	H27	0.519860	0.971720	0.809490
H281	H28	0.318250	0.822420	0.860780
H291	H29	0.105440	0.872530	0.905300
H301	H30	0.309590	0.022190	0.852530
H311	H31	0.021150	0.982370	0.816000
H321	H32	0.942100	0.055130	0.764730
H331	H33	0.713160	0.145980	0.867200
H341	H34	0.811640	0.075610	0.917840
H351	H35	0.029240	0.393700	0.789630
H361	H36	0.553510	0.389060	0.868250
H371	H37	0.662910	0.466540	0.908310
H381	H38	0.139710	0.473270	0.829290
H391	H39	0.859790	0.566460	0.825450
H401	H40	0.987420	0.636010	0.779070
H411	H41	0.481250	0.635180	0.851350
H421	H42	0.348690	0.569250	0.900710
H431	H43	0.141660	0.645220	0.581020
H441	H44	0.938540	0.662790	0.520870
H451	H45	0.758620	0.810450	0.581180
H461	H46	0.977050	0.794980	0.639000
H471	H47	0.686350	0.696280	0.426420
H481	H48	0.911740	0.697180	0.369140
H491	H49	0.255140	0.802230	0.442000
H501	H50	0.038640	0.798540	0.501310
H511	H51	0.421730	0.671930	0.664460
H521	H52	0.426710	0.788480	0.340720
H531	H53	0.480140	0.971720	0.309490
H541	H54	0.681750	0.822420	0.360780
H551	H55	0.894560	0.872530	0.405300
H561	H56	0.690410	0.022190	0.352530
H571	H57	0.978850	0.982370	0.316000
H581	H58	0.057900	0.055130	0.264730
H591	H59	0.286840	0.145980	0.367200
H601	H60	0.188360	0.075610	0.417840
H611	H61	0.970760	0.393700	0.289630
H621	H62	0.446490	0.389060	0.368250
H631	H63	0.337090	0.466540	0.408310
H641	H64	0.860290	0.473270	0.329290
H651	H65	0.140210	0.566460	0.325450
H661	H66	0.012580	0.636010	0.279070
H671	H67	0.518750	0.635180	0.351350
H681	H68	0.651310	0.569250	0.400710
H691	H69	0.858340	0.645220	0.081020
H701	H70	0.061460	0.662790	0.020870
H711	H71	0.241380	0.810450	0.081180
H721	H72	0.022950	0.794980	0.139000
H731	H73	0.313650	0.696280	0.926420
H741	H74	0.088260	0.697180	0.869140
H751	H75	0.744860	0.802230	0.942000
H761	H76	0.961360	0.798540	0.001310
H771	H77	0.578270	0.671930	0.164460
H781	H78	0.573290	0.788480	0.840720
H791	H79	0.480140	0.028280	0.190510
H801	H80	0.681750	0.177580	0.139220
H811	H81	0.894560	0.127470	0.094700
H821	H82	0.690410	0.977810	0.147470
H831	H83	0.978850	0.017630	0.184000
H841	H84	0.057900	0.944870	0.235270
H851	H85	0.286840	0.854020	0.132800
H861	H86	0.188360	0.924390	0.082160
H871	H87	0.970760	0.606300	0.210370
H881	H88	0.446490	0.610940	0.131750
H891	H89	0.337090	0.533460	0.091690
H901	H90	0.860290	0.526730	0.170710
H911	H91	0.140210	0.433540	0.174550
H921	H92	0.012580	0.363990	0.220930
H931	H93	0.518750	0.364820	0.148650
H941	H94	0.651310	0.430750	0.099290
H951	H95	0.858340	0.354780	0.418980
H961	H96	0.061460	0.337210	0.479130
H971	H97	0.241380	0.189550	0.418820
H981	H98	0.022950	0.205020	0.361000
H991	H99	0.313650	0.303720	0.573580
H1001	H100	0.088260	0.302820	0.630860
H1011	H101	0.744860	0.197770	0.558000
H1021	H102	0.961360	0.201460	0.498690
H1031	H103	0.578270	0.328070	0.335540
H1041	H104	0.573290	0.211520	0.659280
C11	C1	0.527530	0.135290	0.704930
C21	C2	0.427240	0.106480	0.669930
C31	C3	0.428630	0.049680	0.669220
C41	C4	0.315100	0.133480	0.641170
C51	C5	0.192840	0.104680	0.615860
C61	C6	0.308720	0.020930	0.643740
C71	C7	0.180240	0.048030	0.618700
C81	C8	0.030640	0.014220	0.596740
C91	C9	0.874960	0.050730	0.579410
C101	C10	0.126200	0.983950	0.562060
C111	C11	0.941000	0.974530	0.629970
C121	C12	0.960050	0.981790	0.673820
C131	C13	0.914130	0.940620	0.701590
C141	C14	0.837590	0.892460	0.686350
C151	C15	0.786770	0.889540	0.643890
C161	C16	0.841760	0.929600	0.615600
C171	C17	0.844910	0.843050	0.713160
C181	C18	0.727170	0.663910	0.698810
C191	C19	0.783180	0.614180	0.674530
C201	C20	0.948350	0.589520	0.684700
C211	C21	0.681590	0.592690	0.641000
C221	C22	0.744630	0.548200	0.617940
C231	C23	0.010670	0.544950	0.662060
C241	C24	0.910150	0.523740	0.628140
C251	C25	0.994490	0.476670	0.602540
C261	C26	0.850330	0.443000	0.577280
C271	C27	0.125650	0.503480	0.569830
C281	C28	0.091420	0.436540	0.632450
C291	C29	0.994810	0.417970	0.667850
C301	C30	0.067850	0.378880	0.694480
C311	C31	0.343790	0.379590	0.653700
C321	C32	0.267850	0.417200	0.625980
C331	C33	0.242550	0.358710	0.687370
C341	C34	0.318280	0.313270	0.713410
C351	C35	0.208090	0.287260	0.852210
C361	C36	0.071250	0.280910	0.886060
C371	C37	0.057400	0.318610	0.919170
C381	C38	0.941340	0.308740	0.952770
C391	C39	0.841480	0.225850	0.919260
C401	C40	0.832860	0.261950	0.953350
C411	C41	0.962330	0.234700	0.886300
C421	C42	0.718550	0.251250	0.993180
C431	C43	0.621090	0.194820	0.993080
C441	C44	0.569690	0.296420	0.994980
C451	C45	0.847280	0.253340	0.031460
C461	C46	0.811070	0.281010	0.069190
C471	C47	0.937230	0.280350	0.101830
C481	C48	0.098670	0.251170	0.097890
C491	C49	0.132170	0.221620	0.060840
C501	C50	0.008610	0.223450	0.027780
C511	C51	0.224340	0.250350	0.134420
C521	C52	0.527530	0.864710	0.795070
C531	C53	0.427240	0.893520	0.830070
C541	C54	0.428630	0.950320	0.830780
C551	C55	0.315100	0.866520	0.858830
C561	C56	0.192840	0.895320	0.884140
C571	C57	0.308720	0.979070	0.856260
C581	C58	0.180240	0.951970	0.881300
C591	C59	0.030640	0.985780	0.903260
C601	C60	0.874960	0.949270	0.920590
C611	C61	0.126200	0.016050	0.937940
C621	C62	0.941000	0.025470	0.870030
C631	C63	0.960050	0.018210	0.826180
C641	C64	0.914130	0.059380	0.798410
C651	C65	0.837590	0.107540	0.813650
C661	C66	0.786770	0.110460	0.856110
C671	C67	0.841760	0.070400	0.884400
C681	C68	0.844910	0.156950	0.786840
C691	C69	0.727170	0.336090	0.801190
C701	C70	0.783180	0.385820	0.825470
C711	C71	0.948350	0.410480	0.815300
C721	C72	0.681590	0.407310	0.859000
C731	C73	0.744630	0.451800	0.882060
C741	C74	0.010670	0.455050	0.837940
C751	C75	0.910150	0.476260	0.871860
C761	C76	0.994490	0.523330	0.897460
C771	C77	0.850330	0.557000	0.922720
C781	C78	0.125650	0.496520	0.930170
C791	C79	0.091420	0.563460	0.867550
C801	C80	0.994810	0.582030	0.832150
C811	C81	0.067850	0.621120	0.805520
C821	C82	0.343790	0.620410	0.846300
C831	C83	0.267850	0.582800	0.874020
C841	C84	0.242550	0.641290	0.812630
C851	C85	0.318280	0.686730	0.786590
C861	C86	0.208090	0.712740	0.647790
C871	C87	0.071250	0.719090	0.613940
C881	C88	0.057400	0.681390	0.580830
C891	C89	0.941340	0.691260	0.547230
C901	C90	0.841480	0.774150	0.580740
C911	C91	0.832860	0.738050	0.546650
C921	C92	0.962330	0.765300	0.613700
C931	C93	0.718550	0.748750	0.506820
C941	C94	0.621090	0.805180	0.506920
C951	C95	0.569690	0.703580	0.505020
C961	C96	0.847280	0.746660	0.468540
C971	C97	0.811070	0.718990	0.430810
C981	C98	0.937230	0.719650	0.398170
C991	C99	0.098670	0.748830	0.402110
C1001	C100	0.132170	0.778380	0.439160
C1011	C101	0.008610	0.776550	0.472220
C1021	C102	0.224340	0.749650	0.365580
C1031	C103	0.472470	0.864710	0.295070
C1041	C104	0.572760	0.893520	0.330070
C1051	C105	0.571370	0.950320	0.330780
C1061	C106	0.684900	0.866520	0.358830
C1071	C107	0.807160	0.895320	0.384140
C1081	C108	0.691280	0.979070	0.356260
C1091	C109	0.819760	0.951970	0.381300
C1101	C110	0.969360	0.985780	0.403260
C1111	C111	0.125040	0.949270	0.420590
C1121	C112	0.873800	0.016050	0.437940
C1131	C113	0.059000	0.025470	0.370030
C1141	C114	0.039950	0.018210	0.326180
C1151	C115	0.085870	0.059380	0.298410
C1161	C116	0.162410	0.107540	0.313650
C1171	C117	0.213230	0.110460	0.356110
C1181	C118	0.158240	0.070400	0.384400
C1191	C119	0.155090	0.156950	0.286840
C1201	C120	0.272830	0.336090	0.301190
C1211	C121	0.216820	0.385820	0.325470
C1221	C122	0.051650	0.410480	0.315300
C1231	C123	0.318410	0.407310	0.359000
C1241	C124	0.255370	0.451800	0.382060
C1251	C125	0.989330	0.455050	0.337940
C1261	C126	0.089850	0.476260	0.371860
C1271	C127	0.005510	0.523330	0.397460
C1281	C128	0.149670	0.557000	0.422720
C1291	C129	0.874350	0.496520	0.430170
C1301	C130	0.908580	0.563460	0.367550
C1311	C131	0.005190	0.582030	0.332150
C1321	C132	0.932150	0.621120	0.305520
C1331	C133	0.656210	0.620410	0.346300
C1341	C134	0.732150	0.582800	0.374020
C1351	C135	0.757450	0.641290	0.312630
C1361	C136	0.681720	0.686730	0.286590
C1371	C137	0.791910	0.712740	0.147790
C1381	C138	0.928750	0.719090	0.113940
C1391	C139	0.942600	0.681390	0.080830
C1401	C140	0.058660	0.691260	0.047230
C1411	C141	0.158520	0.774150	0.080740
C1421	C142	0.167140	0.738050	0.046650
C1431	C143	0.037670	0.765300	0.113700
C1441	C144	0.281450	0.748750	0.006820
C1451	C145	0.378910	0.805180	0.006920
C1461	C146	0.430310	0.703580	0.005020
C1471	C147	0.152720	0.746660	0.968540
C1481	C148	0.188930	0.718990	0.930810
C1491	C149	0.062770	0.719650	0.898170
C1501	C150	0.901330	0.748830	0.902110
C1511	C151	0.867830	0.778380	0.939160
C1521	C152	0.991390	0.776550	0.972220
C1531	C153	0.775660	0.749650	0.865580
C1541	C154	0.472470	0.135290	0.204930
C1551	C155	0.572760	0.106480	0.169930
C1561	C156	0.571370	0.049680	0.169220
C1571	C157	0.684900	0.133480	0.141170
C1581	C158	0.807160	0.104680	0.115860
C1591	C159	0.691280	0.020930	0.143740
C1601	C160	0.819760	0.048030	0.118700
C1611	C161	0.969360	0.014220	0.096740
C1621	C162	0.125040	0.050730	0.079410
C1631	C163	0.873800	0.983950	0.062060
C1641	C164	0.059000	0.974530	0.129970
C1651	C165	0.039950	0.981790	0.173820
C1661	C166	0.085870	0.940620	0.201590
C1671	C167	0.162410	0.892460	0.186350
C1681	C168	0.213230	0.889540	0.143890
C1691	C169	0.158240	0.929600	0.115600
C1701	C170	0.155090	0.843050	0.213160
C1711	C171	0.272830	0.663910	0.198810
C1721	C172	0.216820	0.614180	0.174530
C1731	C173	0.051650	0.589520	0.184700
C1741	C174	0.318410	0.592690	0.141000
C1751	C175	0.255370	0.548200	0.117940
C1761	C176	0.989330	0.544950	0.162060
C1771	C177	0.089850	0.523740	0.128140
C1781	C178	0.005510	0.476670	0.102540
C1791	C179	0.149670	0.443000	0.077280
C1801	C180	0.874350	0.503480	0.069830
C1811	C181	0.908580	0.436540	0.132450
C1821	C182	0.005190	0.417970	0.167850
C1831	C183	0.932150	0.378880	0.194480
C1841	C184	0.656210	0.379590	0.153700
C1851	C185	0.732150	0.417200	0.125980
C1861	C186	0.757450	0.358710	0.187370
C1871	C187	0.681720	0.313270	0.213410
C1881	C188	0.791910	0.287260	0.352210
C1891	C189	0.928750	0.280910	0.386060
C1901	C190	0.942600	0.318610	0.419170
C1911	C191	0.058660	0.308740	0.452770
C1921	C192	0.158520	0.225850	0.419260
C1931	C193	0.167140	0.261950	0.453350
C1941	C194	0.037670	0.234700	0.386300
C1951	C195	0.281450	0.251250	0.493180
C1961	C196	0.378910	0.194820	0.493080
C1971	C197	0.430310	0.296420	0.494980
C1981	C198	0.152720	0.253340	0.531460
C1991	C199	0.188930	0.281010	0.569190
C2001	C200	0.062770	0.280350	0.601830
C2011	C201	0.901330	0.251170	0.597890
C2021	C202	0.867830	0.221620	0.560840
C2031	C203	0.991390	0.223450	0.527780
C2041	C204	0.775660	0.250350	0.634420
O11	O1	0.531820	0.188190	0.705010
O21	O2	0.588760	0.106680	0.734470
O31	O3	0.984380	0.840290	0.737610
O41	O4	0.734660	0.803600	0.710060
O51	O5	0.835200	0.682210	0.726360
O61	O6	0.575040	0.686990	0.690630
O71	O7	0.486100	0.309250	0.718860
O81	O8	0.205620	0.278240	0.729300
O91	O9	0.227270	0.252740	0.823580
O101	O10	0.309040	0.331230	0.855750
O111	O11	0.186260	0.274700	0.167880
O121	O12	0.373030	0.221500	0.129600
O131	O13	0.531820	0.811810	0.794990
O141	O14	0.588760	0.893320	0.765530
O151	O15	0.984380	0.159710	0.762390
O161	O16	0.734660	0.196400	0.789940
O171	O17	0.835200	0.317790	0.773640
O181	O18	0.575040	0.313010	0.809370
O191	O19	0.486100	0.690750	0.781140
O201	O20	0.205620	0.721760	0.770700
O211	O21	0.227270	0.747260	0.676420
O221	O22	0.309040	0.668770	0.644250
O231	O23	0.186260	0.725300	0.332120
O241	O24	0.373030	0.778500	0.370400
O251	O25	0.468180	0.811810	0.294990
O261	O26	0.411240	0.893320	0.265530
O271	O27	0.015620	0.159710	0.262390
O281	O28	0.265340	0.196400	0.289940
O291	O29	0.164800	0.317790	0.273640
O301	O30	0.424960	0.313010	0.309370
O311	O31	0.513900	0.690750	0.281140
O321	O32	0.794380	0.721760	0.270700
O331	O33	0.772730	0.747260	0.176420
O341	O34	0.690960	0.668770	0.144250
O351	O35	0.813740	0.725300	0.832120
O361	O36	0.626970	0.778500	0.870400
O371	O37	0.468180	0.188190	0.205010
O381	O38	0.411240	0.106680	0.234470
O391	O39	0.015620	0.840290	0.237610
O401	O40	0.265340	0.803600	0.210060
O411	O41	0.164800	0.682210	0.226360
O421	O42	0.424960	0.686990	0.190630
O431	O43	0.513900	0.309250	0.218860
O441	O44	0.794380	0.278240	0.229300
O451	O45	0.772730	0.252740	0.323580
O461	O46	0.690960	0.331230	0.355750
O471	O47	0.813740	0.274700	0.667880
O481	O48	0.626970	0.221500	0.629600
F11	F1	0.736150	0.021440	0.562840
F21	F2	0.804510	0.081010	0.611670
F31	F3	0.929180	0.085820	0.548620
F41	F4	0.008380	0.960130	0.534670
F51	F5	0.233950	0.016530	0.536860
F61	F6	0.234230	0.943550	0.577400
F71	F7	0.193100	0.467710	0.540910
F81	F8	0.042410	0.543660	0.547740
F91	F9	0.270020	0.526800	0.589830
F101	F10	0.774050	0.470650	0.544520
F111	F11	0.923060	0.397030	0.560560
F121	F12	0.711810	0.427210	0.603120
F131	F13	0.641570	0.348200	0.004050
F141	F14	0.439430	0.289030	0.024570
F151	F15	0.484110	0.301160	0.957070
F161	F16	0.486540	0.191370	0.963590
F171	F17	0.545460	0.186350	0.031360
F181	F18	0.738310	0.153200	0.985310
F191	F19	0.736150	0.978560	0.937160
F201	F20	0.804510	0.918990	0.888330
F211	F21	0.929180	0.914180	0.951380
F221	F22	0.008380	0.039870	0.965330
F231	F23	0.233950	0.983470	0.963140
F241	F24	0.234230	0.056450	0.922600
F251	F25	0.193100	0.532290	0.959090
F261	F26	0.042410	0.456340	0.952260
F271	F27	0.270020	0.473200	0.910170
F281	F28	0.774050	0.529350	0.955480
F291	F29	0.923060	0.602970	0.939440
F301	F30	0.711810	0.572790	0.896880
F311	F31	0.641570	0.651800	0.495950
F321	F32	0.439430	0.710970	0.475430
F331	F33	0.484110	0.698840	0.542930
F341	F34	0.486540	0.808630	0.536410
F351	F35	0.545460	0.813650	0.468640
F361	F36	0.738310	0.846800	0.514690
F371	F37	0.263850	0.978560	0.437160
F381	F38	0.195490	0.918990	0.388330
F391	F39	0.070820	0.914180	0.451380
F401	F40	0.991620	0.039870	0.465330
F411	F41	0.766050	0.983470	0.463140
F421	F42	0.765770	0.056450	0.422600
F431	F43	0.806900	0.532290	0.459090
F441	F44	0.957590	0.456340	0.452260
F451	F45	0.729980	0.473200	0.410170
F461	F46	0.225950	0.529350	0.455480
F471	F47	0.076940	0.602970	0.439440
F481	F48	0.288190	0.572790	0.396880
F491	F49	0.358430	0.651800	0.995950
F501	F50	0.560570	0.710970	0.975430
F511	F51	0.515890	0.698840	0.042930
F521	F52	0.513460	0.808630	0.036410
F531	F53	0.454540	0.813650	0.968640
F541	F54	0.261690	0.846800	0.014690
F551	F55	0.263850	0.021440	0.062840
F561	F56	0.195490	0.081010	0.111670
F571	F57	0.070820	0.085820	0.048620
F581	F58	0.991620	0.960130	0.034670
F591	F59	0.766050	0.016530	0.036860
F601	F60	0.765770	0.943550	0.077400
F611	F61	0.806900	0.467710	0.040910
F621	F62	0.957590	0.543660	0.047740
F631	F63	0.729980	0.526800	0.089830
F641	F64	0.225950	0.470650	0.044520
F651	F65	0.076940	0.397030	0.060560
F661	F66	0.288190	0.427210	0.103120
F671	F67	0.358430	0.348200	0.504050
F681	F68	0.560570	0.289030	0.524570
F691	F69	0.515890	0.301160	0.457070
F701	F70	0.513460	0.191370	0.463590
F711	F71	0.454540	0.186350	0.531360
F721	F72	0.261690	0.153200	0.485310
