data_VAGMEX_clean_PM
_symmetry_space_group_name_H-M	'P1'
_cell_length_a	18.833000
_cell_length_b	22.780300
_cell_length_c	22.780300
_cell_angle_alpha	60.391700
_cell_angle_beta	65.583800
_cell_angle_gamma	65.583800
_symmetry_Int_Tables_number 1

loop_
_symmetry_equiv_pos_as_xyz
'x,y,z'

loop_
_atom_site_label
_atom_site_type_symbol
_atom_site_fract_x
_atom_site_fract_y
_atom_site_fract_z
Zn11	Zn1	0.985570	0.466460	0.966460
Zn21	Zn2	0.418490	0.033540	0.533540
Zn31	Zn3	0.014430	0.533540	0.033540
Zn41	Zn4	0.581510	0.966460	0.466460
H11	H1	0.215600	0.616400	0.863400
H21	H2	0.249500	0.585100	0.669500
H31	H3	0.153800	0.543600	0.771600
H41	H4	0.315200	0.651000	0.764000
H51	H5	0.490700	0.444000	0.611200
H61	H6	0.431900	0.512000	0.677800
H71	H7	0.695400	0.883600	0.636600
H81	H8	0.504100	0.914900	0.830500
H91	H9	0.469000	0.956400	0.728400
H101	H10	0.730200	0.849000	0.736000
H111	H11	0.545900	0.056000	0.888800
H121	H12	0.621700	0.988000	0.822200
H131	H13	0.784400	0.636600	0.883600
H141	H14	0.750500	0.830500	0.914900
H151	H15	0.846200	0.728400	0.956400
H161	H16	0.684800	0.736000	0.849000
H171	H17	0.509300	0.888800	0.056000
H181	H18	0.568100	0.822200	0.988000
H191	H19	0.304600	0.863400	0.616400
H201	H20	0.495900	0.669500	0.585100
H211	H21	0.531000	0.771600	0.543600
H221	H22	0.269800	0.764000	0.651000
H231	H23	0.454100	0.611200	0.444000
H241	H24	0.378300	0.677800	0.512000
H251	H25	0.784400	0.383600	0.136600
H261	H26	0.750500	0.414900	0.330500
H271	H27	0.846200	0.456400	0.228400
H281	H28	0.684800	0.349000	0.236000
H291	H29	0.509300	0.556000	0.388800
H301	H30	0.568100	0.488000	0.322200
H311	H31	0.304600	0.116400	0.363400
H321	H32	0.495900	0.085100	0.169500
H331	H33	0.531000	0.043600	0.271600
H341	H34	0.269800	0.151000	0.264000
H351	H35	0.454100	0.944000	0.111200
H361	H36	0.378300	0.012000	0.177800
H371	H37	0.215600	0.363400	0.116400
H381	H38	0.249500	0.169500	0.085100
H391	H39	0.153800	0.271600	0.043600
H401	H40	0.315200	0.264000	0.151000
H411	H41	0.490700	0.111200	0.944000
H421	H42	0.431900	0.177800	0.012000
H431	H43	0.695400	0.136600	0.383600
H441	H44	0.504100	0.330500	0.414900
H451	H45	0.469000	0.228400	0.456400
H461	H46	0.730200	0.236000	0.349000
H471	H47	0.545900	0.388800	0.556000
H481	H48	0.621700	0.322200	0.488000
C11	C1	0.222320	0.608980	0.824580
C21	C2	0.244110	0.590890	0.708890
C31	C3	0.111470	0.552030	0.890830
C41	C4	0.294470	0.623230	0.705630
C51	C5	0.174450	0.577220	0.826880
C61	C6	0.185550	0.566950	0.769950
C71	C7	0.281780	0.630320	0.763920
C81	C8	0.470900	0.492200	0.589600
C91	C9	0.432500	0.533400	0.630800
C101	C10	0.655880	0.891020	0.675420
C111	C11	0.543890	0.909110	0.791110
C121	C12	0.554330	0.947970	0.609170
C131	C13	0.623330	0.876770	0.794370
C141	C14	0.578550	0.922780	0.673120
C151	C15	0.522450	0.933050	0.730050
C161	C16	0.676020	0.869680	0.736080
C171	C17	0.552700	0.007800	0.910400
C181	C18	0.596700	0.966600	0.869200
C191	C19	0.777680	0.675420	0.891020
C201	C20	0.755890	0.791110	0.909110
C211	C21	0.888530	0.609170	0.947970
C221	C22	0.705530	0.794370	0.876770
C231	C23	0.825550	0.673120	0.922780
C241	C24	0.814450	0.730050	0.933050
C251	C25	0.718220	0.736080	0.869680
C261	C26	0.529100	0.910400	0.007800
C271	C27	0.567500	0.869200	0.966600
C281	C28	0.344120	0.824580	0.608980
C291	C29	0.456110	0.708890	0.590890
C301	C30	0.445670	0.890830	0.552030
C311	C31	0.376670	0.705630	0.623230
C321	C32	0.421450	0.826880	0.577220
C331	C33	0.477550	0.769950	0.566950
C341	C34	0.323980	0.763920	0.630320
C351	C35	0.447300	0.589600	0.492200
C361	C36	0.403300	0.630800	0.533400
C371	C37	0.777680	0.391020	0.175420
C381	C38	0.755890	0.409110	0.291110
C391	C39	0.888530	0.447970	0.109170
C401	C40	0.705530	0.376770	0.294370
C411	C41	0.825550	0.422780	0.173120
C421	C42	0.814450	0.433050	0.230050
C431	C43	0.718220	0.369680	0.236080
C441	C44	0.529100	0.507800	0.410400
C451	C45	0.567500	0.466600	0.369200
C461	C46	0.344120	0.108980	0.324580
C471	C47	0.456110	0.090890	0.208890
C481	C48	0.445670	0.052030	0.390830
C491	C49	0.376670	0.123230	0.205630
C501	C50	0.421450	0.077220	0.326880
C511	C51	0.477550	0.066950	0.269950
C521	C52	0.323980	0.130320	0.263920
C531	C53	0.447300	0.992200	0.089600
C541	C54	0.403300	0.033400	0.130800
C551	C55	0.222320	0.324580	0.108980
C561	C56	0.244110	0.208890	0.090890
C571	C57	0.111470	0.390830	0.052030
C581	C58	0.294470	0.205630	0.123230
C591	C59	0.174450	0.326880	0.077220
C601	C60	0.185550	0.269950	0.066950
C611	C61	0.281780	0.263920	0.130320
C621	C62	0.470900	0.089600	0.992200
C631	C63	0.432500	0.130800	0.033400
C641	C64	0.655880	0.175420	0.391020
C651	C65	0.543890	0.291110	0.409110
C661	C66	0.554330	0.109170	0.447970
C671	C67	0.623330	0.294370	0.376770
C681	C68	0.578550	0.173120	0.422780
C691	C69	0.522450	0.230050	0.433050
C701	C70	0.676020	0.236080	0.369680
C711	C71	0.552700	0.410400	0.507800
C721	C72	0.596700	0.369200	0.466600
C731	C73	0.478800	0.521200	0.521200
C741	C74	0.396700	0.603300	0.603300
C751	C75	0.521200	0.978800	0.978800
C761	C76	0.603300	0.896700	0.896700
C771	C77	0.521200	0.478800	0.478800
C781	C78	0.603300	0.396700	0.396700
C791	C79	0.478800	0.021200	0.021200
C801	C80	0.396700	0.103300	0.103300
N11	N1	0.356000	0.644000	0.644000
N21	N2	0.644000	0.856000	0.856000
N31	N3	0.644000	0.356000	0.356000
N41	N4	0.356000	0.144000	0.144000
O11	O1	0.073610	0.517950	0.889450
O21	O2	0.098000	0.566620	0.941420
O31	O3	0.481010	0.982050	0.610550
O41	O4	0.606040	0.933380	0.558580
O51	O5	0.926390	0.610550	0.982050
O61	O6	0.902000	0.558580	0.933380
O71	O7	0.518990	0.889450	0.517950
O81	O8	0.393960	0.941420	0.566620
O91	O9	0.926390	0.482050	0.110550
O101	O10	0.902000	0.433380	0.058580
O111	O11	0.518990	0.017950	0.389450
O121	O12	0.393960	0.066620	0.441420
O131	O13	0.073610	0.389450	0.017950
O141	O14	0.098000	0.441420	0.066620
O151	O15	0.481010	0.110550	0.482050
O161	O16	0.606040	0.058580	0.433380
