data_VAGTAA_clean_PM
_symmetry_space_group_name_H-M	'P1'
_cell_length_a	9.585600
_cell_length_b	10.026300
_cell_length_c	10.026300
_cell_angle_alpha	107.144000
_cell_angle_beta	109.333000
_cell_angle_gamma	70.667100
_symmetry_Int_Tables_number 1

loop_
_symmetry_equiv_pos_as_xyz
'x,y,z'

loop_
_atom_site_label
_atom_site_type_symbol
_atom_site_fract_x
_atom_site_fract_y
_atom_site_fract_z
Mg11	Mg1	0.500000	0.000000	0.000000
Mg21	Mg2	0.000000	0.000000	0.000000
H11	H1	0.634800	0.866600	0.329600
H21	H2	0.152600	0.108400	0.338800
H31	H3	0.865200	0.329600	0.866600
H41	H4	0.347400	0.338800	0.108400
H51	H5	0.365200	0.133400	0.670400
H61	H6	0.847400	0.891600	0.661200
H71	H7	0.134800	0.670400	0.133400
H81	H8	0.652600	0.661200	0.891600
C11	C1	0.342800	0.951600	0.195800
C21	C2	0.422500	0.977700	0.353300
C31	C3	0.580700	0.919700	0.398300
C41	C4	0.342800	0.060600	0.458000
C51	C5	0.157200	0.195800	0.951600
C61	C6	0.077500	0.353300	0.977700
C71	C7	0.919300	0.398300	0.919700
C81	C8	0.157200	0.458000	0.060600
C91	C9	0.657200	0.048400	0.804200
C101	C10	0.577500	0.022300	0.646700
C111	C11	0.419300	0.080300	0.601700
C121	C12	0.657200	0.939400	0.542000
C131	C13	0.842800	0.804200	0.048400
C141	C14	0.922500	0.646700	0.022300
C151	C15	0.080700	0.601700	0.080300
C161	C16	0.842800	0.542000	0.939400
O11	O1	0.419800	0.902600	0.105000
O21	O2	0.196800	0.980000	0.164200
O31	O3	0.189000	0.125900	0.426500
O41	O4	0.080200	0.105000	0.902600
O51	O5	0.303200	0.164200	0.980000
O61	O6	0.311000	0.426500	0.125900
O71	O7	0.580200	0.097400	0.895000
O81	O8	0.803200	0.020000	0.835800
O91	O9	0.811000	0.874100	0.573500
O101	O10	0.919800	0.895000	0.097400
O111	O11	0.696800	0.835800	0.020000
O121	O12	0.689000	0.573500	0.874100
