data_VAHFAM_clean_PM
_symmetry_space_group_name_H-M	'P1'
_cell_length_a	7.594300
_cell_length_b	7.817200
_cell_length_c	18.318000
_cell_angle_alpha	90.000000
_cell_angle_beta	99.111000
_cell_angle_gamma	90.000000
_symmetry_Int_Tables_number 1

loop_
_symmetry_equiv_pos_as_xyz
'x,y,z'

loop_
_atom_site_label
_atom_site_type_symbol
_atom_site_fract_x
_atom_site_fract_y
_atom_site_fract_z
Fe11	Fe1	0.364750	0.215600	0.383590
Fe21	Fe2	0.712300	0.958350	0.439970
Fe31	Fe3	0.628260	0.087350	0.115490
Fe41	Fe4	0.279200	0.349400	0.058190
P11	P1	0.449700	0.728500	0.055370
P21	P2	0.558600	0.575200	0.445580
O11	O1	0.431300	0.461500	0.393800
O21	O2	0.188300	0.007300	0.364900
O31	O3	0.576900	0.096400	0.340300
O41	O4	0.496500	0.589900	0.520700
O51	O5	0.301400	0.259500	0.261400
O61	O6	0.138600	0.290900	0.445600
O71	O7	0.576200	0.746300	0.410900
O81	O8	0.942100	0.896000	0.395700
O91	O9	0.879000	0.177800	0.467400
O101	O10	0.581900	0.835000	0.107500
O111	O11	0.803900	0.287400	0.133900
O121	O12	0.409500	0.201000	0.157200
O131	O13	0.515200	0.707100	0.981300
O141	O14	0.689800	0.042000	0.236700
O151	O15	0.855800	0.015700	0.049700
O161	O16	0.414800	0.557200	0.089200
O171	O17	0.052300	0.405200	0.108800
O181	O18	0.110200	0.137800	0.026600
O191	O19	0.262900	0.823100	0.043100
H11	H1	0.273600	0.917400	0.024800
O201	O20	0.751400	0.495200	0.456100
H21	H2	0.749600	0.400400	0.475100
C11	C1	0.940500	0.290500	0.103100
C21	C2	0.971800	0.131800	0.055400
C31	C3	0.023200	0.176900	0.441600
C41	C4	0.052700	0.014700	0.396000
C51	C5	0.413400	0.198000	0.227400
C61	C6	0.577800	0.101900	0.272100
Fe51	Fe5	0.635250	0.715600	0.616410
Fe61	Fe6	0.287700	0.458350	0.560030
Fe71	Fe7	0.371740	0.587350	0.884510
Fe81	Fe8	0.720800	0.849400	0.941810
P31	P3	0.550300	0.228500	0.944630
P41	P4	0.441400	0.075200	0.554420
O211	O21	0.568700	0.961500	0.606200
O221	O22	0.811700	0.507300	0.635100
O231	O23	0.423100	0.596400	0.659700
O241	O24	0.503500	0.089900	0.479300
O251	O25	0.698600	0.759500	0.738600
O261	O26	0.861400	0.790900	0.554400
O271	O27	0.423800	0.246300	0.589100
O281	O28	0.057900	0.396000	0.604300
O291	O29	0.121000	0.677800	0.532600
O301	O30	0.418100	0.335000	0.892500
O311	O31	0.196100	0.787400	0.866100
O321	O32	0.590500	0.701000	0.842800
O331	O33	0.484800	0.207100	0.018700
O341	O34	0.310200	0.542000	0.763300
O351	O35	0.144200	0.515700	0.950300
O361	O36	0.585200	0.057200	0.910800
O371	O37	0.947700	0.905200	0.891200
O381	O38	0.889800	0.637800	0.973400
O391	O39	0.737100	0.323100	0.956900
H31	H3	0.726400	0.417400	0.975200
O401	O40	0.248600	0.995200	0.543900
H41	H4	0.250400	0.900400	0.524900
C71	C7	0.059500	0.790500	0.896900
C81	C8	0.028200	0.631800	0.944600
C91	C9	0.976800	0.676900	0.558400
C101	C10	0.947300	0.514700	0.604000
C111	C11	0.586600	0.698000	0.772600
C121	C12	0.422200	0.601900	0.727900
