data_VAHJEW_clean_PM
_symmetry_space_group_name_H-M	'P1'
_cell_length_a	11.583000
_cell_length_b	11.740000
_cell_length_c	13.638000
_cell_angle_alpha	76.280000
_cell_angle_beta	75.520000
_cell_angle_gamma	65.567000
_symmetry_Int_Tables_number 1

loop_
_symmetry_equiv_pos_as_xyz
'x,y,z'

loop_
_atom_site_label
_atom_site_type_symbol
_atom_site_fract_x
_atom_site_fract_y
_atom_site_fract_z
O11	O1	0.368800	0.408900	0.537400
C11	C1	0.251200	0.483200	0.538600
O21	O2	0.929100	0.681900	0.530700
C21	C2	0.977300	0.759900	0.530200
O31	O3	0.905800	0.874900	0.538300
O41	O4	0.160900	0.445200	0.562200
N11	N1	0.332100	0.652800	0.486800
N21	N2	0.154700	0.829800	0.486200
C31	C3	0.226600	0.621000	0.510800
C41	C4	0.116200	0.730400	0.510600
N31	N3	0.899200	0.453100	0.648700
N41	N4	0.531000	0.486400	0.334400
N51	N5	0.981900	0.013700	0.343300
C51	C5	0.489100	0.587400	0.269300
H11	H1	0.432700	0.661300	0.295100
C61	C6	0.601000	0.488100	0.125000
C71	C7	0.521500	0.593700	0.165500
H21	H2	0.489000	0.670100	0.123100
C81	C8	0.645600	0.498700	0.013400
H31	H3	0.606100	0.575600	0.973900
C91	C9	0.282900	0.781500	0.470300
C101	C10	0.949300	0.351100	0.713400
H41	H4	0.025500	0.288500	0.688600
C111	C11	0.896800	0.330000	0.815700
H51	H5	0.934900	0.254100	0.856900
C121	C12	0.788600	0.541100	0.688000
H61	H6	0.750100	0.614100	0.644100
C131	C13	0.604500	0.383900	0.294100
H71	H7	0.631600	0.307700	0.337900
C141	C14	0.729700	0.530300	0.787800
H81	H8	0.652300	0.593000	0.810600
C151	C15	0.788400	0.422400	0.855200
C161	C16	0.736600	0.408400	0.964900
H91	H9	0.770900	0.329300	0.003400
C171	C17	0.365600	0.855500	0.437400
H101	H10	0.428800	0.825400	0.481200
H111	H11	0.313900	0.943200	0.441500
H121	H12	0.408100	0.846200	0.368000
C181	C18	0.643100	0.382700	0.192700
H131	H13	0.699900	0.307500	0.168900
C191	C19	0.953800	0.010700	0.039000
H141	H14	0.873000	0.025500	0.026800
C201	C20	0.870300	0.023500	0.316100
H151	H15	0.798600	0.029400	0.367100
C211	C21	0.860700	0.024900	0.219900
H161	H16	0.782700	0.033200	0.206200
C221	C22	0.959900	0.014600	0.143700
C231	C23	0.080100	0.003900	0.168600
H171	H17	0.153300	0.994500	0.118600
C241	C24	0.081700	0.008000	0.267400
H181	H18	0.156100	0.006800	0.282600
O51	O5	0.631200	0.591100	0.462600
C251	C25	0.748800	0.516800	0.461400
O61	O6	0.070900	0.318100	0.469300
C261	C26	0.022700	0.240100	0.469800
O71	O7	0.094200	0.125100	0.461700
O81	O8	0.839100	0.554800	0.437800
N61	N6	0.667900	0.347200	0.513200
N71	N7	0.845300	0.170200	0.513800
C271	C27	0.773400	0.379000	0.489200
C281	C28	0.883800	0.269600	0.489400
N81	N8	0.100800	0.546900	0.351300
N91	N9	0.469000	0.513600	0.665600
N101	N10	0.018100	0.986300	0.656700
C291	C29	0.510900	0.412600	0.730700
H191	H19	0.567300	0.338700	0.704900
C301	C30	0.399000	0.511900	0.875000
C311	C31	0.478500	0.406300	0.834500
H201	H20	0.511000	0.329900	0.876900
C321	C32	0.354400	0.501300	0.986600
H211	H21	0.393900	0.424400	0.026100
C331	C33	0.717100	0.218500	0.529700
C341	C34	0.050700	0.648900	0.286600
H221	H22	0.974500	0.711500	0.311400
C351	C35	0.103200	0.670000	0.184300
H231	H23	0.065100	0.745900	0.143100
C361	C36	0.211400	0.458900	0.312000
H241	H24	0.249900	0.385900	0.355900
C371	C37	0.395500	0.616100	0.705900
H251	H25	0.368400	0.692300	0.662100
C381	C38	0.270300	0.469700	0.212200
H261	H26	0.347700	0.407000	0.189400
C391	C39	0.211600	0.577600	0.144800
C401	C40	0.263400	0.591600	0.035100
H271	H27	0.229100	0.670700	0.996600
C411	C41	0.634400	0.144500	0.562600
H281	H28	0.571200	0.174600	0.518800
H291	H29	0.686100	0.056800	0.558500
H301	H30	0.591900	0.153800	0.632000
C421	C42	0.356900	0.617300	0.807300
H311	H31	0.300100	0.692500	0.831100
C431	C43	0.046200	0.989300	0.961000
H321	H32	0.127000	0.974500	0.973200
C441	C44	0.129700	0.976500	0.683900
H331	H33	0.201400	0.970600	0.632900
C451	C45	0.139300	0.975100	0.780100
H341	H34	0.217300	0.966800	0.793800
C461	C46	0.040100	0.985400	0.856300
C471	C47	0.919900	0.996100	0.831400
H351	H35	0.846700	0.005500	0.881400
C481	C48	0.918300	0.992000	0.732600
H361	H36	0.843900	0.993200	0.717400
Co11	Co1	0.000000	0.000000	0.500000
Co21	Co2	0.000000	0.500000	0.500000
Co31	Co3	0.500000	0.500000	0.500000
