data_VAHQAY_clean_PM
_symmetry_space_group_name_H-M	'P1'
_cell_length_a	15.922400
_cell_length_b	19.681400
_cell_length_c	19.681400
_cell_angle_alpha	80.582700
_cell_angle_beta	66.140000
_cell_angle_gamma	66.139900
_symmetry_Int_Tables_number 1

loop_
_symmetry_equiv_pos_as_xyz
'x,y,z'

loop_
_atom_site_label
_atom_site_type_symbol
_atom_site_fract_x
_atom_site_fract_y
_atom_site_fract_z
Er11	Er1	0.205710	0.382780	0.201890
Er21	Er2	0.790380	0.617220	0.798110
Cu11	Cu1	0.360360	0.686240	0.090700
Cu21	Cu2	0.137300	0.313760	0.909300
H11	H1	0.035400	0.425700	0.462700
H21	H2	0.015700	0.408100	0.585900
H31	H3	0.325800	0.330700	0.405100
H41	H4	0.306300	0.311700	0.527500
H51	H5	0.248900	0.243200	0.641600
H61	H6	0.234600	0.231600	0.761400
H71	H7	0.037000	0.446800	0.690800
H81	H8	0.032300	0.428600	0.808800
H91	H9	0.984300	0.564800	0.080800
H101	H10	0.839200	0.616900	0.058900
H111	H11	0.881200	0.422500	0.225100
H121	H12	0.736500	0.473600	0.203800
H131	H13	0.728400	0.601500	0.006300
H141	H14	0.579500	0.643500	0.992900
H151	H15	0.587800	0.580500	0.223700
H161	H16	0.443900	0.624800	0.204600
H171	H17	0.555100	0.267100	0.082700
H181	H18	0.717600	0.253200	0.047400
H191	H19	0.467300	0.484900	0.113300
H201	H20	0.631000	0.470800	0.077000
H211	H21	0.848100	0.255000	0.079000
H221	H22	0.010600	0.243800	0.032200
H231	H23	0.782100	0.451200	0.976800
H241	H24	0.945500	0.436200	0.934800
H251	H25	0.226400	0.187000	0.062800
H261	H26	0.255200	0.066600	0.042000
H271	H27	0.249500	0.128500	0.260500
H281	H28	0.286300	0.006200	0.237400
H291	H29	0.180800	0.964900	0.091900
H301	H30	0.215200	0.843600	0.073800
H311	H31	0.414000	0.896600	0.152200
H321	H32	0.443900	0.778600	0.128200
H331	H33	0.923800	0.574300	0.537300
H341	H34	0.009700	0.591900	0.414100
H351	H35	0.061600	0.669300	0.594900
H361	H36	0.145500	0.688300	0.472500
H371	H37	0.133700	0.756800	0.358400
H381	H38	0.227600	0.768400	0.238600
H391	H39	0.174600	0.553200	0.309200
H401	H40	0.269700	0.571400	0.191200
H411	H41	0.629900	0.435200	0.919200
H421	H42	0.515000	0.383100	0.941100
H431	H43	0.528800	0.577500	0.774900
H441	H44	0.413900	0.526400	0.796200
H451	H45	0.336200	0.398500	0.993700
H461	H46	0.215900	0.356500	0.007100
H471	H47	0.392000	0.419500	0.776300
H481	H48	0.273300	0.375200	0.795400
H491	H49	0.904900	0.732900	0.917300
H501	H50	0.018200	0.746800	0.952600
H511	H51	0.065500	0.515100	0.886700
H521	H52	0.178800	0.529200	0.923000
H531	H53	0.182100	0.745000	0.921000
H541	H54	0.286600	0.756200	0.967800
H551	H55	0.210100	0.548800	0.023200
H561	H56	0.316500	0.563800	0.065200
H571	H57	0.476200	0.813000	0.937200
H581	H58	0.363800	0.933400	0.958000
H591	H59	0.638500	0.871500	0.739500
H601	H60	0.529900	0.993800	0.762600
H611	H61	0.237600	0.035100	0.908100
H621	H62	0.132600	0.156400	0.926200
H631	H63	0.462800	0.103400	0.847800
H641	H64	0.350700	0.221400	0.871800
C11	C1	0.196100	0.392500	0.341100
C21	C2	0.181900	0.382500	0.421500
C31	C3	0.090900	0.403600	0.475400
C41	C4	0.079300	0.392600	0.549600
C51	C5	0.262500	0.347200	0.441600
C61	C6	0.250800	0.335900	0.515100
C71	C7	0.158400	0.359700	0.570900
C81	C8	0.146000	0.347300	0.649900
C91	C9	0.203800	0.282300	0.674500
C101	C10	0.194500	0.275900	0.746700
C111	C11	0.079200	0.402400	0.703400
C121	C12	0.076300	0.390500	0.774500
C131	C13	0.038600	0.454800	0.173000
C141	C14	0.947900	0.488900	0.154900
C151	C15	0.934300	0.546400	0.105600
C161	C16	0.847300	0.577600	0.092200
C171	C17	0.872800	0.461500	0.191700
C181	C18	0.786400	0.492200	0.178600
C191	C19	0.772100	0.550300	0.128300
C201	C20	0.677500	0.582100	0.117100
C211	C21	0.671380	0.604220	0.047620
C221	C22	0.581400	0.630000	0.040000
C231	C23	0.588900	0.592000	0.175600
C241	C24	0.502200	0.618800	0.163600
C251	C25	0.390300	0.383900	0.127100
C261	C26	0.494500	0.377400	0.102600
C271	C27	0.570300	0.308200	0.081800
C281	C28	0.667700	0.300000	0.060000
C291	C29	0.517400	0.438300	0.100100
C301	C30	0.615800	0.429700	0.077900
C311	C31	0.691600	0.361300	0.056900
C321	C32	0.796550	0.353480	0.031420
C331	C33	0.866500	0.292100	0.048700
C341	C34	0.964400	0.285900	0.020300
C351	C35	0.827400	0.408200	0.988600
C361	C36	0.926100	0.398500	0.963100
C371	C37	0.217700	0.247700	0.177900
C381	C38	0.235000	0.170500	0.163900
C391	C39	0.237300	0.150900	0.098500
C401	C40	0.255600	0.078600	0.085600
C411	C41	0.252100	0.116000	0.216000
C421	C42	0.273000	0.042800	0.202600
C431	C43	0.274200	0.024100	0.137300
C441	C44	0.294800	0.946200	0.123600
C451	C45	0.235000	0.927800	0.100000
C461	C46	0.256900	0.854500	0.088700
C471	C47	0.372900	0.887700	0.134900
C481	C48	0.389900	0.816600	0.121000
C491	C49	0.929700	0.607500	0.658900
C501	C50	0.985900	0.617500	0.578500
C511	C51	0.969900	0.596400	0.524600
C521	C52	0.021500	0.607400	0.450400
C531	C53	0.051300	0.652800	0.558400
C541	C54	0.101800	0.664100	0.484900
C551	C55	0.089000	0.640300	0.429100
C561	C56	0.143200	0.652700	0.350100
C571	C57	0.160600	0.717700	0.325500
C581	C58	0.217100	0.724100	0.253300
C591	C59	0.185000	0.597600	0.296600
C601	C60	0.241300	0.609500	0.225500
C611	C61	0.666400	0.545200	0.827000
C621	C62	0.591700	0.511100	0.845100
C631	C63	0.586300	0.453600	0.894400
C641	C64	0.517100	0.422400	0.907800
C651	C65	0.526000	0.538500	0.808300
C661	C66	0.457200	0.507800	0.821400
C671	C67	0.450700	0.449700	0.871700
C681	C68	0.376700	0.417900	0.882900
C691	C69	0.323220	0.395780	0.952380
C701	C70	0.251400	0.370000	0.960000
C711	C71	0.356500	0.408000	0.824400
C721	C72	0.284600	0.381200	0.836400
C731	C73	0.901300	0.616100	0.872900
C741	C74	0.974500	0.622600	0.897400
C751	C75	0.960300	0.691800	0.918200
C761	C76	0.027700	0.700000	0.940000
C771	C77	0.055800	0.561700	0.899900
C781	C78	0.123400	0.570300	0.922100
C791	C79	0.109800	0.638700	0.943100
C801	C80	0.181450	0.646520	0.968580
C811	C81	0.207300	0.707900	0.951300
C821	C82	0.270600	0.714100	0.979700
C831	C83	0.224200	0.591800	0.011400
C841	C84	0.287700	0.601500	0.036900
C851	C85	0.643300	0.752300	0.822100
C861	C86	0.569400	0.829500	0.836100
C871	C87	0.486700	0.849100	0.901500
C881	C88	0.419800	0.921400	0.914400
C891	C89	0.584100	0.884000	0.784000
C901	C90	0.518400	0.957200	0.797400
C911	C91	0.435600	0.975900	0.862700
C921	C92	0.364600	0.053800	0.876400
C931	C93	0.262800	0.072200	0.900000
C941	C94	0.200100	0.145500	0.911300
C951	C95	0.395500	0.112300	0.865100
C961	C96	0.327500	0.183400	0.879000
N11	N1	0.132220	0.328120	0.798040
N21	N2	0.495680	0.636840	0.097800
N31	N3	0.995500	0.337430	0.976970
N41	N4	0.333770	0.798020	0.097440
N51	N5	0.258380	0.671880	0.201960
N61	N6	0.230320	0.363160	0.902200
N71	N7	0.309900	0.662570	0.023030
N81	N8	0.229230	0.201980	0.902560
O11	O1	0.278300	0.359700	0.293100
O21	O2	0.124410	0.432190	0.322390
O31	O3	0.039600	0.409660	0.225540
O41	O4	0.113300	0.472280	0.136720
O51	O5	0.319120	0.445270	0.147490
O61	O6	0.373580	0.327120	0.127320
O71	O7	0.213520	0.295990	0.126170
O81	O8	0.210210	0.264480	0.239700
O91	O9	0.931100	0.640300	0.706900
O101	O10	0.878990	0.567810	0.677610
O111	O11	0.674800	0.590340	0.774460
O121	O12	0.722300	0.527720	0.863280
O131	O13	0.911880	0.554730	0.852510
O141	O14	0.828020	0.672880	0.872680
O151	O15	0.635680	0.704010	0.873830
O161	O16	0.714390	0.735520	0.760300
Er31	Er3	0.592400	0.201890	0.617220
Er41	Er4	0.411510	0.798110	0.382780
Cu31	Cu3	0.548940	0.090700	0.313760
Cu41	Cu4	0.953400	0.909300	0.686240
H651	H65	0.501900	0.462700	0.574300
H661	H66	0.398400	0.585900	0.591900
H671	H67	0.269100	0.405100	0.669300
H681	H68	0.166200	0.527500	0.688300
H691	H69	0.109500	0.641600	0.756800
H701	H70	0.004000	0.761400	0.768400
H711	H71	0.272200	0.690800	0.553200
H721	H72	0.158900	0.808800	0.571400
H731	H73	0.934900	0.080800	0.435200
H741	H74	0.101900	0.058900	0.383100
H751	H75	0.893700	0.225100	0.577500
H761	H76	0.059700	0.203800	0.526400
H771	H77	0.265300	0.006300	0.398500
H781	H78	0.427600	0.992900	0.356500
H791	H79	0.188500	0.223700	0.419500
H801	H80	0.351500	0.204600	0.375200
H811	H81	0.362200	0.082700	0.732900
H821	H82	0.235000	0.047400	0.746800
H831	H83	0.419400	0.113300	0.515100
H841	H84	0.292000	0.077000	0.529200
H851	H85	0.072900	0.079000	0.745000
H861	H86	0.957200	0.032200	0.756200
H871	H87	0.241100	0.976800	0.548800
H881	H88	0.119700	0.934800	0.563800
H891	H89	0.710800	0.062800	0.813000
H901	H90	0.702800	0.042000	0.933400
H911	H91	0.490000	0.260500	0.871500
H921	H92	0.476300	0.237400	0.993800
H931	H93	0.727300	0.091900	0.035100
H941	H94	0.711000	0.073800	0.156400
H951	H95	0.433800	0.152200	0.103400
H961	H96	0.427900	0.128200	0.221400
H971	H97	0.538900	0.537300	0.425700
H981	H98	0.576200	0.414100	0.408100
H991	H99	0.343500	0.594900	0.330700
H1001	H100	0.382000	0.472500	0.311700
H1011	H101	0.507900	0.358400	0.243200
H1021	H102	0.533800	0.238600	0.231600
H1031	H103	0.516200	0.309200	0.446800
H1041	H104	0.539100	0.191200	0.428600
H1051	H105	0.450900	0.919200	0.564800
H1061	H106	0.543900	0.941100	0.616900
H1071	H107	0.696300	0.774900	0.422500
H1081	H108	0.789900	0.796200	0.473600
H1091	H109	0.670100	0.993700	0.601500
H1101	H110	0.777000	0.007100	0.643500
H1111	H111	0.831700	0.776300	0.580500
H1121	H112	0.931300	0.795400	0.624800
H1131	H113	0.177800	0.917300	0.267100
H1141	H114	0.029200	0.952600	0.253200
H1151	H115	0.047800	0.886700	0.484900
H1161	H116	0.898200	0.923000	0.470800
H1171	H117	0.896900	0.921000	0.255000
H1181	H118	0.745600	0.967800	0.243800
H1191	H119	0.766700	0.023200	0.451200
H1201	H120	0.618300	0.065200	0.436200
H1211	H121	0.586600	0.937200	0.187000
H1221	H122	0.678200	0.958000	0.066600
H1231	H123	0.622000	0.739500	0.128500
H1241	H124	0.707500	0.762600	0.006200
H1251	H125	0.854300	0.908100	0.964900
H1261	H126	0.941200	0.926200	0.843600
H1271	H127	0.689400	0.847800	0.896600
H1281	H128	0.777500	0.871800	0.778600
C971	C97	0.462800	0.341100	0.607500
C981	C98	0.396600	0.421500	0.617500
C991	C99	0.433700	0.475400	0.596400
C1001	C100	0.371100	0.549600	0.607400
C1011	C101	0.295900	0.441600	0.652800
C1021	C102	0.234100	0.515100	0.664100
C1031	C103	0.270700	0.570900	0.640300
C1041	C104	0.204100	0.649900	0.652700
C1051	C105	0.121700	0.674500	0.717700
C1061	C106	0.058800	0.746700	0.724100
C1071	C107	0.217400	0.703400	0.597600
C1081	C108	0.149200	0.774500	0.609500
C1091	C109	0.788400	0.173000	0.545200
C1101	C110	0.897200	0.154900	0.511100
C1111	C111	0.960100	0.105600	0.453600
C1121	C112	0.060500	0.092200	0.422400
C1131	C113	0.935500	0.191700	0.538500
C1141	C114	0.035000	0.178600	0.507800
C1151	C115	0.099600	0.128300	0.449700
C1161	C116	0.205400	0.117100	0.417900
C1171	C117	0.281000	0.047620	0.395780
C1181	C118	0.378600	0.040000	0.370000
C1191	C119	0.235500	0.175600	0.408000
C1201	C120	0.334200	0.163600	0.381200
C1211	C121	0.482600	0.127100	0.616100
C1221	C122	0.402900	0.102600	0.622600
C1231	C123	0.347900	0.081800	0.691800
C1241	C124	0.272300	0.060000	0.700000
C1251	C125	0.382500	0.100100	0.561700
C1261	C126	0.306300	0.077900	0.570300
C1271	C127	0.251500	0.056900	0.638700
C1281	C128	0.172030	0.031420	0.646520
C1291	C129	0.084800	0.048700	0.707900
C1301	C130	0.015300	0.020300	0.714100
C1311	C131	0.184000	0.988600	0.591800
C1321	C132	0.110800	0.963100	0.601500
C1331	C133	0.604400	0.177900	0.752300
C1341	C134	0.601100	0.163900	0.829500
C1351	C135	0.664200	0.098500	0.849100
C1361	C136	0.658800	0.085600	0.921400
C1371	C137	0.531900	0.216000	0.884000
C1381	C138	0.524400	0.202600	0.957200
C1391	C139	0.588500	0.137300	0.975900
C1401	C140	0.581600	0.123600	0.053800
C1411	C141	0.665000	0.100000	0.072200
C1421	C142	0.654400	0.088700	0.145500
C1431	C143	0.492200	0.134900	0.112300
C1441	C144	0.489100	0.121000	0.183400
C1451	C145	0.411400	0.658900	0.392500
C1461	C146	0.435600	0.578500	0.382500
C1471	C147	0.505500	0.524600	0.403600
C1481	C148	0.528100	0.450400	0.392600
C1491	C149	0.390300	0.558400	0.347200
C1501	C150	0.413300	0.484900	0.335900
C1511	C151	0.481900	0.429100	0.359700
C1521	C152	0.506700	0.350100	0.347300
C1531	C153	0.513900	0.325500	0.282300
C1541	C154	0.529600	0.253300	0.275900
C1551	C155	0.518400	0.296600	0.402400
C1561	C156	0.533200	0.225500	0.390500
C1571	C157	0.506600	0.827000	0.454800
C1581	C158	0.563200	0.845100	0.488900
C1591	C159	0.519300	0.894400	0.546400
C1601	C160	0.575100	0.907800	0.577600
C1611	C161	0.665700	0.808300	0.461500
C1621	C162	0.721400	0.821400	0.492200
C1631	C163	0.677600	0.871700	0.550300
C1641	C164	0.740400	0.882900	0.582100
C1651	C165	0.724400	0.952380	0.604220
C1661	C166	0.788600	0.960000	0.630000
C1671	C167	0.819100	0.824400	0.592000
C1681	C168	0.879000	0.836400	0.618800
C1691	C169	0.225800	0.872900	0.383900
C1701	C170	0.128100	0.897400	0.377400
C1711	C171	0.121500	0.918200	0.308200
C1721	C172	0.032300	0.940000	0.300000
C1731	C173	0.044300	0.899900	0.438300
C1741	C174	0.954500	0.922100	0.429700
C1751	C175	0.947100	0.943100	0.361300
C1761	C176	0.849970	0.968580	0.353480
C1771	C177	0.841400	0.951300	0.292100
C1781	C178	0.749700	0.979700	0.285900
C1791	C179	0.764400	0.011400	0.408200
C1801	C180	0.675400	0.036900	0.398500
C1811	C181	0.534600	0.822100	0.247700
C1821	C182	0.594500	0.836100	0.170500
C1831	C183	0.611800	0.901500	0.150900
C1841	C184	0.665800	0.914400	0.078600
C1851	C185	0.631900	0.784000	0.116000
C1861	C186	0.684200	0.797400	0.042800
C1871	C187	0.701700	0.862700	0.024100
C1881	C188	0.759000	0.876400	0.946200
C1891	C189	0.837200	0.900000	0.927800
C1901	C190	0.888600	0.911300	0.854500
C1911	C191	0.739400	0.865100	0.887700
C1921	C192	0.793500	0.879000	0.816600
N91	N9	0.069740	0.798040	0.671880
N101	N10	0.406520	0.097800	0.363160
N111	N11	0.027530	0.976970	0.662570
N121	N12	0.568790	0.097440	0.201980
N131	N13	0.539660	0.201960	0.328120
N141	N14	0.867480	0.902200	0.636840
N151	N15	0.667070	0.023030	0.337430
N161	N16	0.868210	0.902560	0.798020
O171	O17	0.428600	0.293100	0.640300
O181	O18	0.553200	0.322390	0.567810
O191	O19	0.734860	0.225540	0.590340
O201	O20	0.749980	0.136720	0.527720
O211	O21	0.533390	0.147490	0.554730
O221	O22	0.499100	0.127320	0.672880
O231	O23	0.660310	0.126170	0.704010
O241	O24	0.550090	0.239700	0.735520
O251	O25	0.362000	0.706900	0.359700
O261	O26	0.443400	0.677610	0.432190
O271	O27	0.550740	0.774460	0.409660
O281	O28	0.414420	0.863280	0.472280
O291	O29	0.235610	0.852510	0.445270
O301	O30	0.299300	0.872680	0.327120
O311	O31	0.490490	0.873830	0.295990
O321	O32	0.525310	0.760300	0.264480
