data_VAHSON_clean_PM
_symmetry_space_group_name_H-M	'P1'
_cell_length_a	9.361900
_cell_length_b	10.115800
_cell_length_c	12.645600
_cell_angle_alpha	98.485000
_cell_angle_beta	107.018000
_cell_angle_gamma	105.424000
_symmetry_Int_Tables_number 1

loop_
_symmetry_equiv_pos_as_xyz
'x,y,z'

loop_
_atom_site_label
_atom_site_type_symbol
_atom_site_fract_x
_atom_site_fract_y
_atom_site_fract_z
Ga11	Ga1	0.777250	0.097790	0.511840
Ga21	Ga2	0.784450	0.601680	0.516640
Ga31	Ga3	0.498110	0.201430	0.227690
Ga41	Ga4	0.512440	0.691170	0.219730
P11	P1	0.417000	0.954600	0.324500
P21	P2	0.422900	0.464700	0.335000
P31	P3	0.840800	0.339400	0.392300
P41	P4	0.155000	0.161300	0.604400
P51	P5	0.495700	0.189600	0.982900
O11	O1	0.560800	0.055900	0.419800
O21	O2	0.268300	0.926100	0.357200
O31	O3	0.830400	0.284900	0.498000
O41	O4	0.995500	0.141600	0.619100
O51	O5	0.190900	0.022200	0.598400
O61	O6	0.567800	0.570300	0.427400
O71	O7	0.272800	0.456600	0.364100
O81	O8	0.821700	0.486400	0.405700
O91	O9	0.996600	0.347800	0.373300
O101	O10	0.162300	0.212000	0.497500
O111	O11	0.384400	0.021700	0.221200
O121	O12	0.433000	0.315300	0.313700
O131	O13	0.710700	0.238400	0.283600
O141	O14	0.445800	0.231500	0.083800
O151	O15	0.430500	0.808700	0.286100
O161	O16	0.400300	0.515600	0.223400
O171	O17	0.275800	0.269900	0.713400
O181	O18	0.530200	0.318400	0.932100
O191	O19	0.659000	0.166200	0.028400
O201	O20	0.372000	0.060600	0.897100
H11	H1	0.636000	0.076000	0.055000
Ga51	Ga5	0.222750	0.902210	0.488160
Ga61	Ga6	0.215550	0.398320	0.483360
Ga71	Ga7	0.501890	0.798570	0.772310
Ga81	Ga8	0.487560	0.308830	0.780270
P61	P6	0.583000	0.045400	0.675500
P71	P7	0.577100	0.535300	0.665000
P81	P8	0.159200	0.660600	0.607700
P91	P9	0.845000	0.838700	0.395600
P101	P10	0.504300	0.810400	0.017100
O211	O21	0.439200	0.944100	0.580200
O221	O22	0.731700	0.073900	0.642800
O231	O23	0.169600	0.715100	0.502000
O241	O24	0.004500	0.858400	0.380900
O251	O25	0.809100	0.977800	0.401600
O261	O26	0.432200	0.429700	0.572600
O271	O27	0.727200	0.543400	0.635900
O281	O28	0.178300	0.513600	0.594300
O291	O29	0.003400	0.652200	0.626700
O301	O30	0.837700	0.788000	0.502500
O311	O31	0.615600	0.978300	0.778800
O321	O32	0.567000	0.684700	0.686300
O331	O33	0.289300	0.761600	0.716400
O341	O34	0.554200	0.768500	0.916200
O351	O35	0.569500	0.191300	0.713900
O361	O36	0.599700	0.484400	0.776600
O371	O37	0.724200	0.730100	0.286600
O381	O38	0.469800	0.681600	0.067900
O391	O39	0.341000	0.833800	0.971600
O401	O40	0.628000	0.939400	0.102900
H21	H2	0.364000	0.924000	0.945000
