data_VAJHIA_clean_PM
_symmetry_space_group_name_H-M	'P1'
_cell_length_a	20.909000
_cell_length_b	11.364000
_cell_length_c	17.699000
_cell_angle_alpha	90.000000
_cell_angle_beta	103.275000
_cell_angle_gamma	90.000000
_symmetry_Int_Tables_number 1

loop_
_symmetry_equiv_pos_as_xyz
'x,y,z'

loop_
_atom_site_label
_atom_site_type_symbol
_atom_site_fract_x
_atom_site_fract_y
_atom_site_fract_z
Zn11	Zn1	0.053200	0.863770	0.358210
Zn21	Zn2	0.228200	0.917260	0.685760
C11	C1	0.148300	0.843600	0.523200
C21	C2	0.131500	0.722000	0.542600
C31	C3	0.169900	0.629600	0.534100
H11	H1	0.208600	0.642800	0.517900
C41	C4	0.152800	0.515100	0.549100
H21	H2	0.180000	0.452900	0.542900
C51	C5	0.096700	0.493700	0.572600
C61	C6	0.059300	0.586500	0.584400
H31	H3	0.021500	0.573600	0.602400
C71	C7	0.077000	0.700000	0.569800
H41	H4	0.051000	0.762600	0.578800
C81	C8	0.102700	0.274100	0.558800
H51	H5	0.137500	0.269100	0.534400
C91	C9	0.028600	0.338700	0.618100
H61	H6	0.003900	0.389300	0.641300
N11	N1	0.020100	0.224900	0.614100
C101	C10	0.355700	0.812500	0.689500
C111	C11	0.314300	0.722200	0.716100
C121	C12	0.322900	0.607700	0.740800
C131	C13	0.376900	0.522600	0.751000
C141	C14	0.226200	0.662900	0.749900
H71	H7	0.184300	0.661500	0.759400
N21	N2	0.127700	0.893700	0.453500
N31	N3	0.157700	0.001800	0.458500
N41	N4	0.194500	0.014200	0.528100
N51	N5	0.189100	0.914900	0.569900
N61	N6	0.077700	0.375100	0.584600
C151	C15	0.066500	0.183700	0.576300
H81	H8	0.072100	0.105200	0.564500
N71	N7	0.251910	0.756400	0.722400
N81	N8	0.267390	0.571300	0.762500
O11	O1	0.330460	0.914700	0.680100
O21	O2	0.410890	0.787800	0.678400
O31	O3	0.429640	0.545700	0.731100
O41	O4	0.369360	0.427000	0.784100
Zn31	Zn3	0.553200	0.363770	0.358210
Zn41	Zn4	0.728200	0.417260	0.685760
C161	C16	0.648300	0.343600	0.523200
C171	C17	0.631500	0.222000	0.542600
C181	C18	0.669900	0.129600	0.534100
H91	H9	0.708600	0.142800	0.517900
C191	C19	0.652800	0.015100	0.549100
H101	H10	0.680000	0.952900	0.542900
C201	C20	0.596700	0.993700	0.572600
C211	C21	0.559300	0.086500	0.584400
H111	H11	0.521500	0.073600	0.602400
C221	C22	0.577000	0.200000	0.569800
H121	H12	0.551000	0.262600	0.578800
C231	C23	0.602700	0.774100	0.558800
H131	H13	0.637500	0.769100	0.534400
C241	C24	0.528600	0.838700	0.618100
H141	H14	0.503900	0.889300	0.641300
N91	N9	0.520100	0.724900	0.614100
C251	C25	0.855700	0.312500	0.689500
C261	C26	0.814300	0.222200	0.716100
C271	C27	0.822900	0.107700	0.740800
C281	C28	0.876900	0.022600	0.751000
C291	C29	0.726200	0.162900	0.749900
H151	H15	0.684300	0.161500	0.759400
N101	N10	0.627700	0.393700	0.453500
N111	N11	0.657700	0.501800	0.458500
N121	N12	0.694500	0.514200	0.528100
N131	N13	0.689100	0.414900	0.569900
N141	N14	0.577700	0.875100	0.584600
C301	C30	0.566500	0.683700	0.576300
H161	H16	0.572100	0.605200	0.564500
N151	N15	0.751910	0.256400	0.722400
N161	N16	0.767390	0.071300	0.762500
O51	O5	0.830460	0.414700	0.680100
O61	O6	0.910890	0.287800	0.678400
O71	O7	0.929640	0.045700	0.731100
O81	O8	0.869360	0.927000	0.784100
Zn51	Zn5	0.946800	0.863770	0.141790
Zn61	Zn6	0.771800	0.917260	0.814240
C311	C31	0.851700	0.843600	0.976800
C321	C32	0.868500	0.722000	0.957400
C331	C33	0.830100	0.629600	0.965900
H171	H17	0.791400	0.642800	0.982100
C341	C34	0.847200	0.515100	0.950900
H181	H18	0.820000	0.452900	0.957100
C351	C35	0.903300	0.493700	0.927400
C361	C36	0.940700	0.586500	0.915600
H191	H19	0.978500	0.573600	0.897600
C371	C37	0.923000	0.700000	0.930200
H201	H20	0.949000	0.762600	0.921200
C381	C38	0.897300	0.274100	0.941200
H211	H21	0.862500	0.269100	0.965600
C391	C39	0.971400	0.338700	0.881900
H221	H22	0.996100	0.389300	0.858700
N171	N17	0.979900	0.224900	0.885900
C401	C40	0.644300	0.812500	0.810500
C411	C41	0.685700	0.722200	0.783900
C421	C42	0.677100	0.607700	0.759200
C431	C43	0.623100	0.522600	0.749000
C441	C44	0.773800	0.662900	0.750100
H231	H23	0.815700	0.661500	0.740600
N181	N18	0.872300	0.893700	0.046500
N191	N19	0.842300	0.001800	0.041500
N201	N20	0.805500	0.014200	0.971900
N211	N21	0.810900	0.914900	0.930100
N221	N22	0.922300	0.375100	0.915400
C451	C45	0.933500	0.183700	0.923700
H241	H24	0.927900	0.105200	0.935500
N231	N23	0.748090	0.756400	0.777600
N241	N24	0.732610	0.571300	0.737500
O91	O9	0.669540	0.914700	0.819900
O101	O10	0.589110	0.787800	0.821600
O111	O11	0.570360	0.545700	0.768900
O121	O12	0.630640	0.427000	0.715900
Zn71	Zn7	0.446800	0.363770	0.141790
Zn81	Zn8	0.271800	0.417260	0.814240
C461	C46	0.351700	0.343600	0.976800
C471	C47	0.368500	0.222000	0.957400
C481	C48	0.330100	0.129600	0.965900
H251	H25	0.291400	0.142800	0.982100
C491	C49	0.347200	0.015100	0.950900
H261	H26	0.320000	0.952900	0.957100
C501	C50	0.403300	0.993700	0.927400
C511	C51	0.440700	0.086500	0.915600
H271	H27	0.478500	0.073600	0.897600
C521	C52	0.423000	0.200000	0.930200
H281	H28	0.449000	0.262600	0.921200
C531	C53	0.397300	0.774100	0.941200
H291	H29	0.362500	0.769100	0.965600
C541	C54	0.471400	0.838700	0.881900
H301	H30	0.496100	0.889300	0.858700
N251	N25	0.479900	0.724900	0.885900
C551	C55	0.144300	0.312500	0.810500
C561	C56	0.185700	0.222200	0.783900
C571	C57	0.177100	0.107700	0.759200
C581	C58	0.123100	0.022600	0.749000
C591	C59	0.273800	0.162900	0.750100
H311	H31	0.315700	0.161500	0.740600
N261	N26	0.372300	0.393700	0.046500
N271	N27	0.342300	0.501800	0.041500
N281	N28	0.305500	0.514200	0.971900
N291	N29	0.310900	0.414900	0.930100
N301	N30	0.422300	0.875100	0.915400
C601	C60	0.433500	0.683700	0.923700
H321	H32	0.427900	0.605200	0.935500
N311	N31	0.248090	0.256400	0.777600
N321	N32	0.232610	0.071300	0.737500
O131	O13	0.169540	0.414700	0.819900
O141	O14	0.089110	0.287800	0.821600
O151	O15	0.070360	0.045700	0.768900
O161	O16	0.130640	0.927000	0.715900
Zn91	Zn9	0.946800	0.136230	0.641790
Zn101	Zn10	0.771800	0.082740	0.314240
C611	C61	0.851700	0.156400	0.476800
C621	C62	0.868500	0.278000	0.457400
C631	C63	0.830100	0.370400	0.465900
H331	H33	0.791400	0.357200	0.482100
C641	C64	0.847200	0.484900	0.450900
H341	H34	0.820000	0.547100	0.457100
C651	C65	0.903300	0.506300	0.427400
C661	C66	0.940700	0.413500	0.415600
H351	H35	0.978500	0.426400	0.397600
C671	C67	0.923000	0.300000	0.430200
H361	H36	0.949000	0.237400	0.421200
C681	C68	0.897300	0.725900	0.441200
H371	H37	0.862500	0.730900	0.465600
C691	C69	0.971400	0.661300	0.381900
H381	H38	0.996100	0.610700	0.358700
N331	N33	0.979900	0.775100	0.385900
C701	C70	0.644300	0.187500	0.310500
C711	C71	0.685700	0.277800	0.283900
C721	C72	0.677100	0.392300	0.259200
C731	C73	0.623100	0.477400	0.249000
C741	C74	0.773800	0.337100	0.250100
H391	H39	0.815700	0.338500	0.240600
N341	N34	0.872300	0.106300	0.546500
N351	N35	0.842300	0.998200	0.541500
N361	N36	0.805500	0.985800	0.471900
N371	N37	0.810900	0.085100	0.430100
N381	N38	0.922300	0.624900	0.415400
C751	C75	0.933500	0.816300	0.423700
H401	H40	0.927900	0.894800	0.435500
N391	N39	0.748090	0.243600	0.277600
N401	N40	0.732610	0.428700	0.237500
O171	O17	0.669540	0.085300	0.319900
O181	O18	0.589110	0.212200	0.321600
O191	O19	0.570360	0.454300	0.268900
O201	O20	0.630640	0.573000	0.215900
Zn111	Zn11	0.446800	0.636230	0.641790
Zn121	Zn12	0.271800	0.582740	0.314240
C761	C76	0.351700	0.656400	0.476800
C771	C77	0.368500	0.778000	0.457400
C781	C78	0.330100	0.870400	0.465900
H411	H41	0.291400	0.857200	0.482100
C791	C79	0.347200	0.984900	0.450900
H421	H42	0.320000	0.047100	0.457100
C801	C80	0.403300	0.006300	0.427400
C811	C81	0.440700	0.913500	0.415600
H431	H43	0.478500	0.926400	0.397600
C821	C82	0.423000	0.800000	0.430200
H441	H44	0.449000	0.737400	0.421200
C831	C83	0.397300	0.225900	0.441200
H451	H45	0.362500	0.230900	0.465600
C841	C84	0.471400	0.161300	0.381900
H461	H46	0.496100	0.110700	0.358700
N411	N41	0.479900	0.275100	0.385900
C851	C85	0.144300	0.687500	0.310500
C861	C86	0.185700	0.777800	0.283900
C871	C87	0.177100	0.892300	0.259200
C881	C88	0.123100	0.977400	0.249000
C891	C89	0.273800	0.837100	0.250100
H471	H47	0.315700	0.838500	0.240600
N421	N42	0.372300	0.606300	0.546500
N431	N43	0.342300	0.498200	0.541500
N441	N44	0.305500	0.485800	0.471900
N451	N45	0.310900	0.585100	0.430100
N461	N46	0.422300	0.124900	0.415400
C901	C90	0.433500	0.316300	0.423700
H481	H48	0.427900	0.394800	0.435500
N471	N47	0.248090	0.743600	0.277600
N481	N48	0.232610	0.928700	0.237500
O211	O21	0.169540	0.585300	0.319900
O221	O22	0.089110	0.712200	0.321600
O231	O23	0.070360	0.954300	0.268900
O241	O24	0.130640	0.073000	0.215900
Zn131	Zn13	0.053200	0.136230	0.858210
Zn141	Zn14	0.228200	0.082740	0.185760
C911	C91	0.148300	0.156400	0.023200
C921	C92	0.131500	0.278000	0.042600
C931	C93	0.169900	0.370400	0.034100
H491	H49	0.208600	0.357200	0.017900
C941	C94	0.152800	0.484900	0.049100
H501	H50	0.180000	0.547100	0.042900
C951	C95	0.096700	0.506300	0.072600
C961	C96	0.059300	0.413500	0.084400
H511	H51	0.021500	0.426400	0.102400
C971	C97	0.077000	0.300000	0.069800
H521	H52	0.051000	0.237400	0.078800
C981	C98	0.102700	0.725900	0.058800
H531	H53	0.137500	0.730900	0.034400
C991	C99	0.028600	0.661300	0.118100
H541	H54	0.003900	0.610700	0.141300
N491	N49	0.020100	0.775100	0.114100
C1001	C100	0.355700	0.187500	0.189500
C1011	C101	0.314300	0.277800	0.216100
C1021	C102	0.322900	0.392300	0.240800
C1031	C103	0.376900	0.477400	0.251000
C1041	C104	0.226200	0.337100	0.249900
H551	H55	0.184300	0.338500	0.259400
N501	N50	0.127700	0.106300	0.953500
N511	N51	0.157700	0.998200	0.958500
N521	N52	0.194500	0.985800	0.028100
N531	N53	0.189100	0.085100	0.069900
N541	N54	0.077700	0.624900	0.084600
C1051	C105	0.066500	0.816300	0.076300
H561	H56	0.072100	0.894800	0.064500
N551	N55	0.251910	0.243600	0.222400
N561	N56	0.267390	0.428700	0.262500
O251	O25	0.330460	0.085300	0.180100
O261	O26	0.410890	0.212200	0.178400
O271	O27	0.429640	0.454300	0.231100
O281	O28	0.369360	0.573000	0.284100
Zn151	Zn15	0.553200	0.636230	0.858210
Zn161	Zn16	0.728200	0.582740	0.185760
C1061	C106	0.648300	0.656400	0.023200
C1071	C107	0.631500	0.778000	0.042600
C1081	C108	0.669900	0.870400	0.034100
H571	H57	0.708600	0.857200	0.017900
C1091	C109	0.652800	0.984900	0.049100
H581	H58	0.680000	0.047100	0.042900
C1101	C110	0.596700	0.006300	0.072600
C1111	C111	0.559300	0.913500	0.084400
H591	H59	0.521500	0.926400	0.102400
C1121	C112	0.577000	0.800000	0.069800
H601	H60	0.551000	0.737400	0.078800
C1131	C113	0.602700	0.225900	0.058800
H611	H61	0.637500	0.230900	0.034400
C1141	C114	0.528600	0.161300	0.118100
H621	H62	0.503900	0.110700	0.141300
N571	N57	0.520100	0.275100	0.114100
C1151	C115	0.855700	0.687500	0.189500
C1161	C116	0.814300	0.777800	0.216100
C1171	C117	0.822900	0.892300	0.240800
C1181	C118	0.876900	0.977400	0.251000
C1191	C119	0.726200	0.837100	0.249900
H631	H63	0.684300	0.838500	0.259400
N581	N58	0.627700	0.606300	0.953500
N591	N59	0.657700	0.498200	0.958500
N601	N60	0.694500	0.485800	0.028100
N611	N61	0.689100	0.585100	0.069900
N621	N62	0.577700	0.124900	0.084600
C1201	C120	0.566500	0.316300	0.076300
H641	H64	0.572100	0.394800	0.064500
N631	N63	0.751910	0.743600	0.222400
N641	N64	0.767390	0.928700	0.262500
O291	O29	0.830460	0.585300	0.180100
O301	O30	0.910890	0.712200	0.178400
O311	O31	0.929640	0.954300	0.231100
O321	O32	0.869360	0.073000	0.284100
