data_VAJQOP_clean_PM
_symmetry_space_group_name_H-M	'P1'
_cell_length_a	22.752800
_cell_length_b	10.903900
_cell_length_c	11.560200
_cell_angle_alpha	90.000000
_cell_angle_beta	112.208000
_cell_angle_gamma	90.000000
_symmetry_Int_Tables_number 1

loop_
_symmetry_equiv_pos_as_xyz
'x,y,z'

loop_
_atom_site_label
_atom_site_type_symbol
_atom_site_fract_x
_atom_site_fract_y
_atom_site_fract_z
Co11	Co1	0.179430	0.082460	0.437090
N11	N1	0.246480	0.947570	0.549690
N21	N2	0.119210	0.218360	0.308650
O11	O1	0.252950	0.853450	0.896340
O21	O2	0.304610	0.679530	0.898730
O31	O3	0.350730	0.545480	0.711520
O41	O4	0.420420	0.678020	0.834920
C11	C1	0.288180	0.894150	0.508170
H11	H1	0.290100	0.921800	0.433600
C21	C2	0.328220	0.800150	0.571330
H21	H2	0.356400	0.766000	0.539400
C31	C3	0.326160	0.756880	0.683070
C41	C4	0.368670	0.651540	0.749250
C51	C5	0.284440	0.814170	0.728530
C61	C6	0.279720	0.778800	0.850760
C71	C7	0.246010	0.908370	0.659000
H31	H3	0.218500	0.946200	0.690200
C81	C8	0.077620	0.193300	0.194300
H41	H4	0.070700	0.111300	0.170600
C91	C9	0.044260	0.280600	0.108800
H51	H5	0.015900	0.257100	0.030200
C101	C10	0.127060	0.335800	0.337300
H61	H6	0.155800	0.357200	0.416300
C111	C11	0.095430	0.428700	0.257900
H71	H7	0.103000	0.509600	0.284600
C121	C12	0.053090	0.403800	0.140300
C131	C13	0.021460	0.505500	0.057100
H81	H8	0.032700	0.584600	0.087500
Co21	Co2	0.679430	0.582460	0.437090
N31	N3	0.746480	0.447570	0.549690
N41	N4	0.619210	0.718360	0.308650
O51	O5	0.752950	0.353450	0.896340
O61	O6	0.804610	0.179530	0.898730
O71	O7	0.850730	0.045480	0.711520
O81	O8	0.920420	0.178020	0.834920
C141	C14	0.788180	0.394150	0.508170
H91	H9	0.790100	0.421800	0.433600
C151	C15	0.828220	0.300150	0.571330
H101	H10	0.856400	0.266000	0.539400
C161	C16	0.826160	0.256880	0.683070
C171	C17	0.868670	0.151540	0.749250
C181	C18	0.784440	0.314170	0.728530
C191	C19	0.779720	0.278800	0.850760
C201	C20	0.746010	0.408370	0.659000
H111	H11	0.718500	0.446200	0.690200
C211	C21	0.577620	0.693300	0.194300
H121	H12	0.570700	0.611300	0.170600
C221	C22	0.544260	0.780600	0.108800
H131	H13	0.515900	0.757100	0.030200
C231	C23	0.627060	0.835800	0.337300
H141	H14	0.655800	0.857200	0.416300
C241	C24	0.595430	0.928700	0.257900
H151	H15	0.603000	0.009600	0.284600
C251	C25	0.553090	0.903800	0.140300
C261	C26	0.521460	0.005500	0.057100
H161	H16	0.532700	0.084600	0.087500
Co31	Co3	0.820570	0.082460	0.062910
N51	N5	0.753520	0.947570	0.950310
N61	N6	0.880790	0.218360	0.191350
O91	O9	0.747050	0.853450	0.603660
O101	O10	0.695390	0.679530	0.601270
O111	O11	0.649270	0.545480	0.788480
O121	O12	0.579580	0.678020	0.665080
C271	C27	0.711820	0.894150	0.991830
H171	H17	0.709900	0.921800	0.066400
C281	C28	0.671780	0.800150	0.928670
H181	H18	0.643600	0.766000	0.960600
C291	C29	0.673840	0.756880	0.816930
C301	C30	0.631330	0.651540	0.750750
C311	C31	0.715560	0.814170	0.771470
C321	C32	0.720280	0.778800	0.649240
C331	C33	0.753990	0.908370	0.841000
H191	H19	0.781500	0.946200	0.809800
C341	C34	0.922380	0.193300	0.305700
H201	H20	0.929300	0.111300	0.329400
C351	C35	0.955740	0.280600	0.391200
H211	H21	0.984100	0.257100	0.469800
C361	C36	0.872940	0.335800	0.162700
H221	H22	0.844200	0.357200	0.083700
C371	C37	0.904570	0.428700	0.242100
H231	H23	0.897000	0.509600	0.215400
C381	C38	0.946910	0.403800	0.359700
C391	C39	0.978540	0.505500	0.442900
H241	H24	0.967300	0.584600	0.412500
Co41	Co4	0.320570	0.582460	0.062910
N71	N7	0.253520	0.447570	0.950310
N81	N8	0.380790	0.718360	0.191350
O131	O13	0.247050	0.353450	0.603660
O141	O14	0.195390	0.179530	0.601270
O151	O15	0.149270	0.045480	0.788480
O161	O16	0.079580	0.178020	0.665080
C401	C40	0.211820	0.394150	0.991830
H251	H25	0.209900	0.421800	0.066400
C411	C41	0.171780	0.300150	0.928670
H261	H26	0.143600	0.266000	0.960600
C421	C42	0.173840	0.256880	0.816930
C431	C43	0.131330	0.151540	0.750750
C441	C44	0.215560	0.314170	0.771470
C451	C45	0.220280	0.278800	0.649240
C461	C46	0.253990	0.408370	0.841000
H271	H27	0.281500	0.446200	0.809800
C471	C47	0.422380	0.693300	0.305700
H281	H28	0.429300	0.611300	0.329400
C481	C48	0.455740	0.780600	0.391200
H291	H29	0.484100	0.757100	0.469800
C491	C49	0.372940	0.835800	0.162700
H301	H30	0.344200	0.857200	0.083700
C501	C50	0.404570	0.928700	0.242100
H311	H31	0.397000	0.009600	0.215400
C511	C51	0.446910	0.903800	0.359700
C521	C52	0.478540	0.005500	0.442900
H321	H32	0.467300	0.084600	0.412500
Co51	Co5	0.820570	0.917540	0.562910
N91	N9	0.753520	0.052430	0.450310
N101	N10	0.880790	0.781640	0.691350
O171	O17	0.747050	0.146550	0.103660
O181	O18	0.695390	0.320470	0.101270
O191	O19	0.649270	0.454520	0.288480
O201	O20	0.579580	0.321980	0.165080
C531	C53	0.711820	0.105850	0.491830
H331	H33	0.709900	0.078200	0.566400
C541	C54	0.671780	0.199850	0.428670
H341	H34	0.643600	0.234000	0.460600
C551	C55	0.673840	0.243120	0.316930
C561	C56	0.631330	0.348460	0.250750
C571	C57	0.715560	0.185830	0.271470
C581	C58	0.720280	0.221200	0.149240
C591	C59	0.753990	0.091630	0.341000
H351	H35	0.781500	0.053800	0.309800
C601	C60	0.922380	0.806700	0.805700
H361	H36	0.929300	0.888700	0.829400
C611	C61	0.955740	0.719400	0.891200
H371	H37	0.984100	0.742900	0.969800
C621	C62	0.872940	0.664200	0.662700
H381	H38	0.844200	0.642800	0.583700
C631	C63	0.904570	0.571300	0.742100
H391	H39	0.897000	0.490400	0.715400
C641	C64	0.946910	0.596200	0.859700
C651	C65	0.978540	0.494500	0.942900
H401	H40	0.967300	0.415400	0.912500
Co61	Co6	0.320570	0.417540	0.562910
N111	N11	0.253520	0.552430	0.450310
N121	N12	0.380790	0.281640	0.691350
O211	O21	0.247050	0.646550	0.103660
O221	O22	0.195390	0.820470	0.101270
O231	O23	0.149270	0.954520	0.288480
O241	O24	0.079580	0.821980	0.165080
C661	C66	0.211820	0.605850	0.491830
H411	H41	0.209900	0.578200	0.566400
C671	C67	0.171780	0.699850	0.428670
H421	H42	0.143600	0.734000	0.460600
C681	C68	0.173840	0.743120	0.316930
C691	C69	0.131330	0.848460	0.250750
C701	C70	0.215560	0.685830	0.271470
C711	C71	0.220280	0.721200	0.149240
C721	C72	0.253990	0.591630	0.341000
H431	H43	0.281500	0.553800	0.309800
C731	C73	0.422380	0.306700	0.805700
H441	H44	0.429300	0.388700	0.829400
C741	C74	0.455740	0.219400	0.891200
H451	H45	0.484100	0.242900	0.969800
C751	C75	0.372940	0.164200	0.662700
H461	H46	0.344200	0.142800	0.583700
C761	C76	0.404570	0.071300	0.742100
H471	H47	0.397000	0.990400	0.715400
C771	C77	0.446910	0.096200	0.859700
C781	C78	0.478540	0.994500	0.942900
H481	H48	0.467300	0.915400	0.912500
Co71	Co7	0.179430	0.917540	0.937090
N131	N13	0.246480	0.052430	0.049690
N141	N14	0.119210	0.781640	0.808650
O251	O25	0.252950	0.146550	0.396340
O261	O26	0.304610	0.320470	0.398730
O271	O27	0.350730	0.454520	0.211520
O281	O28	0.420420	0.321980	0.334920
C791	C79	0.288180	0.105850	0.008170
H491	H49	0.290100	0.078200	0.933600
C801	C80	0.328220	0.199850	0.071330
H501	H50	0.356400	0.234000	0.039400
C811	C81	0.326160	0.243120	0.183070
C821	C82	0.368670	0.348460	0.249250
C831	C83	0.284440	0.185830	0.228530
C841	C84	0.279720	0.221200	0.350760
C851	C85	0.246010	0.091630	0.159000
H511	H51	0.218500	0.053800	0.190200
C861	C86	0.077620	0.806700	0.694300
H521	H52	0.070700	0.888700	0.670600
C871	C87	0.044260	0.719400	0.608800
H531	H53	0.015900	0.742900	0.530200
C881	C88	0.127060	0.664200	0.837300
H541	H54	0.155800	0.642800	0.916300
C891	C89	0.095430	0.571300	0.757900
H551	H55	0.103000	0.490400	0.784600
C901	C90	0.053090	0.596200	0.640300
C911	C91	0.021460	0.494500	0.557100
H561	H56	0.032700	0.415400	0.587500
Co81	Co8	0.679430	0.417540	0.937090
N151	N15	0.746480	0.552430	0.049690
N161	N16	0.619210	0.281640	0.808650
O291	O29	0.752950	0.646550	0.396340
O301	O30	0.804610	0.820470	0.398730
O311	O31	0.850730	0.954520	0.211520
O321	O32	0.920420	0.821980	0.334920
C921	C92	0.788180	0.605850	0.008170
H571	H57	0.790100	0.578200	0.933600
C931	C93	0.828220	0.699850	0.071330
H581	H58	0.856400	0.734000	0.039400
C941	C94	0.826160	0.743120	0.183070
C951	C95	0.868670	0.848460	0.249250
C961	C96	0.784440	0.685830	0.228530
C971	C97	0.779720	0.721200	0.350760
C981	C98	0.746010	0.591630	0.159000
H591	H59	0.718500	0.553800	0.190200
C991	C99	0.577620	0.306700	0.694300
H601	H60	0.570700	0.388700	0.670600
C1001	C100	0.544260	0.219400	0.608800
H611	H61	0.515900	0.242900	0.530200
C1011	C101	0.627060	0.164200	0.837300
H621	H62	0.655800	0.142800	0.916300
C1021	C102	0.595430	0.071300	0.757900
H631	H63	0.603000	0.990400	0.784600
C1031	C103	0.553090	0.096200	0.640300
C1041	C104	0.521460	0.994500	0.557100
H641	H64	0.532700	0.915400	0.587500
