data_VAJTUX_clean_PM
_symmetry_space_group_name_H-M	'P1'
_cell_length_a	8.522000
_cell_length_b	10.180000
_cell_length_c	17.534000
_cell_angle_alpha	90.000000
_cell_angle_beta	100.627000
_cell_angle_gamma	90.000000
_symmetry_Int_Tables_number 1

loop_
_symmetry_equiv_pos_as_xyz
'x,y,z'

loop_
_atom_site_label
_atom_site_type_symbol
_atom_site_fract_x
_atom_site_fract_y
_atom_site_fract_z
Cu11	Cu1	0.015220	0.672920	0.095360
Cu21	Cu2	0.484780	0.172920	0.404640
Cu31	Cu3	0.984780	0.327080	0.904640
Cu41	Cu4	0.515220	0.827080	0.595360
H11	H1	0.432700	0.386400	0.036300
H21	H2	0.494500	0.277800	0.156200
H31	H3	0.160300	0.497000	0.227800
H41	H4	0.720900	0.742400	0.140300
H51	H5	0.494700	0.867800	0.103000
H61	H6	0.699500	0.010500	0.932300
H71	H7	0.917700	0.883000	0.977200
H81	H8	0.067300	0.886400	0.463700
H91	H9	0.005500	0.777800	0.343800
H101	H10	0.339700	0.997000	0.272200
H111	H11	0.779100	0.242400	0.359700
H121	H12	0.005300	0.367800	0.397000
H131	H13	0.800500	0.510500	0.567700
H141	H14	0.582300	0.383000	0.522800
H151	H15	0.567300	0.613600	0.963700
H161	H16	0.505500	0.722200	0.843800
H171	H17	0.839700	0.503000	0.772200
H181	H18	0.279100	0.257600	0.859700
H191	H19	0.505300	0.132200	0.897000
H201	H20	0.300500	0.989500	0.067700
H211	H21	0.082300	0.117000	0.022800
H221	H22	0.932700	0.113600	0.536300
H231	H23	0.994500	0.222200	0.656200
H241	H24	0.660300	0.003000	0.727800
H251	H25	0.220900	0.757600	0.640300
H261	H26	0.994700	0.632200	0.603000
H271	H27	0.199500	0.489500	0.432300
H281	H28	0.417700	0.617000	0.477200
C11	C1	0.267000	0.504600	0.066400
C21	C2	0.380200	0.408400	0.076500
C31	C3	0.416900	0.343100	0.147700
C41	C4	0.333000	0.379200	0.205700
C51	C5	0.363600	0.316600	0.284600
C61	C6	0.218800	0.475300	0.189700
C71	C7	0.715500	0.797300	0.097500
C81	C8	0.578800	0.873300	0.076100
C91	C9	0.571700	0.957900	0.013200
C101	C10	0.700500	0.957600	0.975600
C111	C11	0.830600	0.878900	0.002200
C121	C12	0.233000	0.004600	0.433600
C131	C13	0.119800	0.908400	0.423500
C141	C14	0.083100	0.843100	0.352300
C151	C15	0.167000	0.879200	0.294300
C161	C16	0.136400	0.816600	0.215400
C171	C17	0.281200	0.975300	0.310300
C181	C18	0.784500	0.297300	0.402500
C191	C19	0.921200	0.373300	0.423900
C201	C20	0.928300	0.457900	0.486800
C211	C21	0.799500	0.457600	0.524400
C221	C22	0.669400	0.378900	0.497800
C231	C23	0.733000	0.495400	0.933600
C241	C24	0.619800	0.591600	0.923500
C251	C25	0.583100	0.656900	0.852300
C261	C26	0.667000	0.620800	0.794300
C271	C27	0.636400	0.683400	0.715400
C281	C28	0.781200	0.524700	0.810300
C291	C29	0.284500	0.202700	0.902500
C301	C30	0.421200	0.126700	0.923900
C311	C31	0.428300	0.042100	0.986800
C321	C32	0.299500	0.042400	0.024400
C331	C33	0.169400	0.121100	0.997800
C341	C34	0.767000	0.995400	0.566400
C351	C35	0.880200	0.091600	0.576500
C361	C36	0.916900	0.156900	0.647700
C371	C37	0.833000	0.120800	0.705700
C381	C38	0.863600	0.183400	0.784600
C391	C39	0.718800	0.024700	0.689700
C401	C40	0.215500	0.702700	0.597500
C411	C41	0.078800	0.626700	0.576100
C421	C42	0.071700	0.542100	0.513200
C431	C43	0.200500	0.542400	0.475600
C441	C44	0.330600	0.621100	0.502200
S11	S1	0.216400	0.596680	0.976450
S21	S2	0.283600	0.096680	0.523550
S31	S3	0.783600	0.403320	0.023550
S41	S4	0.716400	0.903320	0.476450
N11	N1	0.837200	0.798100	0.061500
N21	N2	0.187700	0.539500	0.121900
N31	N3	0.662800	0.298100	0.438500
N41	N4	0.312300	0.039500	0.378100
N51	N5	0.162800	0.201900	0.938500
N61	N6	0.812300	0.460500	0.878100
N71	N7	0.337200	0.701900	0.561500
N81	N8	0.687700	0.960500	0.621900
O11	O1	0.469700	0.224800	0.295300
O21	O2	0.290800	0.353500	0.334500
O31	O3	0.177400	0.491900	0.916800
O41	O4	0.066600	0.665500	0.990200
O51	O5	0.030300	0.724800	0.204700
O61	O6	0.209200	0.853500	0.165500
O71	O7	0.322600	0.991900	0.583200
O81	O8	0.433400	0.165500	0.509800
O91	O9	0.530300	0.775200	0.704700
O101	O10	0.709200	0.646500	0.665500
O111	O11	0.822600	0.508100	0.083200
O121	O12	0.933400	0.334500	0.009800
O131	O13	0.969700	0.275200	0.795300
O141	O14	0.790800	0.146500	0.834500
O151	O15	0.677400	0.008100	0.416800
O161	O16	0.566600	0.834500	0.490200
