data_VALVAI_clean_PM
_symmetry_space_group_name_H-M	'P1'
_cell_length_a	18.295000
_cell_length_b	10.848200
_cell_length_c	17.398400
_cell_angle_alpha	90.000000
_cell_angle_beta	101.395000
_cell_angle_gamma	90.000000
_symmetry_Int_Tables_number 1

loop_
_symmetry_equiv_pos_as_xyz
'x,y,z'

loop_
_atom_site_label
_atom_site_type_symbol
_atom_site_fract_x
_atom_site_fract_y
_atom_site_fract_z
Yb11	Yb1	0.488980	0.401590	0.102040
C11	C1	0.613400	0.607800	0.083000
O11	O1	0.563200	0.342900	0.021200
O21	O2	0.583400	0.423000	0.908700
O31	O3	0.575700	0.549400	0.125100
O41	O4	0.925900	0.893800	0.197200
O51	O5	0.915000	0.808500	0.310400
C21	C2	0.819800	0.769900	0.199000
C31	C3	0.603300	0.360000	0.970400
C41	C4	0.891900	0.827300	0.238500
C51	C5	0.720000	0.295000	0.925400
H11	H1	0.699600	0.325800	0.874500
O61	O6	0.596600	0.619700	0.009900
C61	C6	0.684900	0.666100	0.124000
C71	C7	0.717100	0.760700	0.087700
H21	H2	0.693300	0.789400	0.037400
C81	C8	0.720000	0.623700	0.198100
H31	H3	0.697900	0.559700	0.223000
C91	C9	0.679400	0.302700	0.985300
C101	C10	0.787000	0.675100	0.235100
H41	H4	0.810900	0.645800	0.285300
C111	C11	0.783700	0.812600	0.125300
H51	H5	0.805200	0.877900	0.100900
C121	C12	0.709700	0.257900	0.059300
H61	H6	0.682000	0.263600	0.099900
Yb21	Yb2	0.988980	0.901590	0.102040
C131	C13	0.113400	0.107800	0.083000
O71	O7	0.063200	0.842900	0.021200
O81	O8	0.083400	0.923000	0.908700
O91	O9	0.075700	0.049400	0.125100
O101	O10	0.425900	0.393800	0.197200
O111	O11	0.415000	0.308500	0.310400
C141	C14	0.319800	0.269900	0.199000
C151	C15	0.103300	0.860000	0.970400
C161	C16	0.391900	0.327300	0.238500
C171	C17	0.220000	0.795000	0.925400
H71	H7	0.199600	0.825800	0.874500
O121	O12	0.096600	0.119700	0.009900
C181	C18	0.184900	0.166100	0.124000
C191	C19	0.217100	0.260700	0.087700
H81	H8	0.193300	0.289400	0.037400
C201	C20	0.220000	0.123700	0.198100
H91	H9	0.197900	0.059700	0.223000
C211	C21	0.179400	0.802700	0.985300
C221	C22	0.287000	0.175100	0.235100
H101	H10	0.310900	0.145800	0.285300
C231	C23	0.283700	0.312600	0.125300
H111	H11	0.305200	0.377900	0.100900
C241	C24	0.209700	0.757900	0.059300
H121	H12	0.182000	0.763600	0.099900
Yb31	Yb3	0.511020	0.401590	0.397960
C251	C25	0.386600	0.607800	0.417000
O131	O13	0.436800	0.342900	0.478800
O141	O14	0.416600	0.423000	0.591300
O151	O15	0.424300	0.549400	0.374900
O161	O16	0.074100	0.893800	0.302800
O171	O17	0.085000	0.808500	0.189600
C261	C26	0.180200	0.769900	0.301000
C271	C27	0.396700	0.360000	0.529600
C281	C28	0.108100	0.827300	0.261500
C291	C29	0.280000	0.295000	0.574600
H131	H13	0.300400	0.325800	0.625500
O181	O18	0.403400	0.619700	0.490100
C301	C30	0.315100	0.666100	0.376000
C311	C31	0.282900	0.760700	0.412300
H141	H14	0.306700	0.789400	0.462600
C321	C32	0.280000	0.623700	0.301900
H151	H15	0.302100	0.559700	0.277000
C331	C33	0.320600	0.302700	0.514700
C341	C34	0.213000	0.675100	0.264900
H161	H16	0.189100	0.645800	0.214700
C351	C35	0.216300	0.812600	0.374700
H171	H17	0.194800	0.877900	0.399100
C361	C36	0.290300	0.257900	0.440700
H181	H18	0.318000	0.263600	0.400100
Yb41	Yb4	0.011020	0.901590	0.397960
C371	C37	0.886600	0.107800	0.417000
O191	O19	0.936800	0.842900	0.478800
O201	O20	0.916600	0.923000	0.591300
O211	O21	0.924300	0.049400	0.374900
O221	O22	0.574100	0.393800	0.302800
O231	O23	0.585000	0.308500	0.189600
C381	C38	0.680200	0.269900	0.301000
C391	C39	0.896700	0.860000	0.529600
C401	C40	0.608100	0.327300	0.261500
C411	C41	0.780000	0.795000	0.574600
H191	H19	0.800400	0.825800	0.625500
O241	O24	0.903400	0.119700	0.490100
C421	C42	0.815100	0.166100	0.376000
C431	C43	0.782900	0.260700	0.412300
H201	H20	0.806700	0.289400	0.462600
C441	C44	0.780000	0.123700	0.301900
H211	H21	0.802100	0.059700	0.277000
C451	C45	0.820600	0.802700	0.514700
C461	C46	0.713000	0.175100	0.264900
H221	H22	0.689100	0.145800	0.214700
C471	C47	0.716300	0.312600	0.374700
H231	H23	0.694800	0.377900	0.399100
C481	C48	0.790300	0.757900	0.440700
H241	H24	0.818000	0.763600	0.400100
Yb51	Yb5	0.511020	0.598410	0.897960
C491	C49	0.386600	0.392200	0.917000
O251	O25	0.436800	0.657100	0.978800
O261	O26	0.416600	0.577000	0.091300
O271	O27	0.424300	0.450600	0.874900
O281	O28	0.074100	0.106200	0.802800
O291	O29	0.085000	0.191500	0.689600
C501	C50	0.180200	0.230100	0.801000
C511	C51	0.396700	0.640000	0.029600
C521	C52	0.108100	0.172700	0.761500
C531	C53	0.280000	0.705000	0.074600
H251	H25	0.300400	0.674200	0.125500
O301	O30	0.403400	0.380300	0.990100
C541	C54	0.315100	0.333900	0.876000
C551	C55	0.282900	0.239300	0.912300
H261	H26	0.306700	0.210600	0.962600
C561	C56	0.280000	0.376300	0.801900
H271	H27	0.302100	0.440300	0.777000
C571	C57	0.320600	0.697300	0.014700
C581	C58	0.213000	0.324900	0.764900
H281	H28	0.189100	0.354200	0.714700
C591	C59	0.216300	0.187400	0.874700
H291	H29	0.194800	0.122100	0.899100
C601	C60	0.290300	0.742100	0.940700
H301	H30	0.318000	0.736400	0.900100
Yb61	Yb6	0.011020	0.098410	0.897960
C611	C61	0.886600	0.892200	0.917000
O311	O31	0.936800	0.157100	0.978800
O321	O32	0.916600	0.077000	0.091300
O331	O33	0.924300	0.950600	0.874900
O341	O34	0.574100	0.606200	0.802800
O351	O35	0.585000	0.691500	0.689600
C621	C62	0.680200	0.730100	0.801000
C631	C63	0.896700	0.140000	0.029600
C641	C64	0.608100	0.672700	0.761500
C651	C65	0.780000	0.205000	0.074600
H311	H31	0.800400	0.174200	0.125500
O361	O36	0.903400	0.880300	0.990100
C661	C66	0.815100	0.833900	0.876000
C671	C67	0.782900	0.739300	0.912300
H321	H32	0.806700	0.710600	0.962600
C681	C68	0.780000	0.876300	0.801900
H331	H33	0.802100	0.940300	0.777000
C691	C69	0.820600	0.197300	0.014700
C701	C70	0.713000	0.824900	0.764900
H341	H34	0.689100	0.854200	0.714700
C711	C71	0.716300	0.687400	0.874700
H351	H35	0.694800	0.622100	0.899100
C721	C72	0.790300	0.242100	0.940700
H361	H36	0.818000	0.236400	0.900100
Yb71	Yb7	0.488980	0.598410	0.602040
C731	C73	0.613400	0.392200	0.583000
O371	O37	0.563200	0.657100	0.521200
O381	O38	0.583400	0.577000	0.408700
O391	O39	0.575700	0.450600	0.625100
O401	O40	0.925900	0.106200	0.697200
O411	O41	0.915000	0.191500	0.810400
C741	C74	0.819800	0.230100	0.699000
C751	C75	0.603300	0.640000	0.470400
C761	C76	0.891900	0.172700	0.738500
C771	C77	0.720000	0.705000	0.425400
H371	H37	0.699600	0.674200	0.374500
O421	O42	0.596600	0.380300	0.509900
C781	C78	0.684900	0.333900	0.624000
C791	C79	0.717100	0.239300	0.587700
H381	H38	0.693300	0.210600	0.537400
C801	C80	0.720000	0.376300	0.698100
H391	H39	0.697900	0.440300	0.723000
C811	C81	0.679400	0.697300	0.485300
C821	C82	0.787000	0.324900	0.735100
H401	H40	0.810900	0.354200	0.785300
C831	C83	0.783700	0.187400	0.625300
H411	H41	0.805200	0.122100	0.600900
C841	C84	0.709700	0.742100	0.559300
H421	H42	0.682000	0.736400	0.599900
Yb81	Yb8	0.988980	0.098410	0.602040
C851	C85	0.113400	0.892200	0.583000
O431	O43	0.063200	0.157100	0.521200
O441	O44	0.083400	0.077000	0.408700
O451	O45	0.075700	0.950600	0.625100
O461	O46	0.425900	0.606200	0.697200
O471	O47	0.415000	0.691500	0.810400
C861	C86	0.319800	0.730100	0.699000
C871	C87	0.103300	0.140000	0.470400
C881	C88	0.391900	0.672700	0.738500
C891	C89	0.220000	0.205000	0.425400
H431	H43	0.199600	0.174200	0.374500
O481	O48	0.096600	0.880300	0.509900
C901	C90	0.184900	0.833900	0.624000
C911	C91	0.217100	0.739300	0.587700
H441	H44	0.193300	0.710600	0.537400
C921	C92	0.220000	0.876300	0.698100
H451	H45	0.197900	0.940300	0.723000
C931	C93	0.179400	0.197300	0.485300
C941	C94	0.287000	0.824900	0.735100
H461	H46	0.310900	0.854200	0.785300
C951	C95	0.283700	0.687400	0.625300
H471	H47	0.305200	0.622100	0.600900
C961	C96	0.209700	0.242100	0.559300
H481	H48	0.182000	0.236400	0.599900
