data_VALWUD_clean_PM
_symmetry_space_group_name_H-M	'P1'
_cell_length_a	22.297300
_cell_length_b	22.297300
_cell_length_c	22.297300
_cell_angle_alpha	90.000000
_cell_angle_beta	90.000000
_cell_angle_gamma	90.000000
_symmetry_Int_Tables_number 1

loop_
_symmetry_equiv_pos_as_xyz
'x,y,z'

loop_
_atom_site_label
_atom_site_type_symbol
_atom_site_fract_x
_atom_site_fract_y
_atom_site_fract_z
Co11	Co1	0.323140	0.260140	0.808230
C11	C1	0.200600	0.285320	0.989830
H11	H1	0.242100	0.281400	0.991800
C21	C2	0.172990	0.290980	0.934440
C31	C3	0.196630	0.279210	0.104430
C41	C4	0.206900	0.292160	0.875990
C51	C5	0.077840	0.294200	0.984460
C61	C6	0.111040	0.295210	0.931640
H21	H2	0.091800	0.298700	0.894800
C71	C7	0.106350	0.289260	0.039470
H31	H3	0.083800	0.288500	0.074600
C81	C8	0.167470	0.285440	0.042270
O11	O1	0.176270	0.304010	0.829980
O21	O2	0.162960	0.291470	0.147590
O31	O3	0.249700	0.262940	0.105350
O41	O4	0.261710	0.280750	0.878420
N11	N1	0.013570	0.296110	0.977010
Co21	Co2	0.676860	0.739860	0.808230
C91	C9	0.799400	0.714680	0.989830
H41	H4	0.757900	0.718600	0.991800
C101	C10	0.827010	0.709020	0.934440
C111	C11	0.803370	0.720790	0.104430
C121	C12	0.793100	0.707840	0.875990
C131	C13	0.922160	0.705800	0.984460
C141	C14	0.888960	0.704790	0.931640
H51	H5	0.908200	0.701300	0.894800
C151	C15	0.893650	0.710740	0.039470
H61	H6	0.916200	0.711500	0.074600
C161	C16	0.832530	0.714560	0.042270
O51	O5	0.823730	0.695990	0.829980
O61	O6	0.837040	0.708530	0.147590
O71	O7	0.750300	0.737060	0.105350
O81	O8	0.738290	0.719250	0.878420
N21	N2	0.986430	0.703890	0.977010
Co31	Co3	0.676860	0.260140	0.191770
C171	C17	0.799400	0.285320	0.010170
H71	H7	0.757900	0.281400	0.008200
C181	C18	0.827010	0.290980	0.065560
C191	C19	0.803370	0.279210	0.895570
C201	C20	0.793100	0.292160	0.124010
C211	C21	0.922160	0.294200	0.015540
C221	C22	0.888960	0.295210	0.068360
H81	H8	0.908200	0.298700	0.105200
C231	C23	0.893650	0.289260	0.960530
H91	H9	0.916200	0.288500	0.925400
C241	C24	0.832530	0.285440	0.957730
O91	O9	0.823730	0.304010	0.170020
O101	O10	0.837040	0.291470	0.852410
O111	O11	0.750300	0.262940	0.894650
O121	O12	0.738290	0.280750	0.121580
N31	N3	0.986430	0.296110	0.022990
Co41	Co4	0.323140	0.739860	0.191770
C251	C25	0.200600	0.714680	0.010170
H101	H10	0.242100	0.718600	0.008200
C261	C26	0.172990	0.709020	0.065560
C271	C27	0.196630	0.720790	0.895570
C281	C28	0.206900	0.707840	0.124010
C291	C29	0.077840	0.705800	0.015540
C301	C30	0.111040	0.704790	0.068360
H111	H11	0.091800	0.701300	0.105200
C311	C31	0.106350	0.710740	0.960530
H121	H12	0.083800	0.711500	0.925400
C321	C32	0.167470	0.714560	0.957730
O131	O13	0.176270	0.695990	0.170020
O141	O14	0.162960	0.708530	0.852410
O151	O15	0.249700	0.737060	0.894650
O161	O16	0.261710	0.719250	0.121580
N41	N4	0.013570	0.703890	0.022990
Co51	Co5	0.808230	0.323140	0.260140
C331	C33	0.989830	0.200600	0.285320
H131	H13	0.991800	0.242100	0.281400
C341	C34	0.934440	0.172990	0.290980
C351	C35	0.104430	0.196630	0.279210
C361	C36	0.875990	0.206900	0.292160
C371	C37	0.984460	0.077840	0.294200
C381	C38	0.931640	0.111040	0.295210
H141	H14	0.894800	0.091800	0.298700
C391	C39	0.039470	0.106350	0.289260
H151	H15	0.074600	0.083800	0.288500
C401	C40	0.042270	0.167470	0.285440
O171	O17	0.829980	0.176270	0.304010
O181	O18	0.147590	0.162960	0.291470
O191	O19	0.105350	0.249700	0.262940
O201	O20	0.878420	0.261710	0.280750
N51	N5	0.977010	0.013570	0.296110
Co61	Co6	0.808230	0.676860	0.739860
C411	C41	0.989830	0.799400	0.714680
H161	H16	0.991800	0.757900	0.718600
C421	C42	0.934440	0.827010	0.709020
C431	C43	0.104430	0.803370	0.720790
C441	C44	0.875990	0.793100	0.707840
C451	C45	0.984460	0.922160	0.705800
C461	C46	0.931640	0.888960	0.704790
H171	H17	0.894800	0.908200	0.701300
C471	C47	0.039470	0.893650	0.710740
H181	H18	0.074600	0.916200	0.711500
C481	C48	0.042270	0.832530	0.714560
O211	O21	0.829980	0.823730	0.695990
O221	O22	0.147590	0.837040	0.708530
O231	O23	0.105350	0.750300	0.737060
O241	O24	0.878420	0.738290	0.719250
N61	N6	0.977010	0.986430	0.703890
Co71	Co7	0.191770	0.676860	0.260140
C491	C49	0.010170	0.799400	0.285320
H191	H19	0.008200	0.757900	0.281400
C501	C50	0.065560	0.827010	0.290980
C511	C51	0.895570	0.803370	0.279210
C521	C52	0.124010	0.793100	0.292160
C531	C53	0.015540	0.922160	0.294200
C541	C54	0.068360	0.888960	0.295210
H201	H20	0.105200	0.908200	0.298700
C551	C55	0.960530	0.893650	0.289260
H211	H21	0.925400	0.916200	0.288500
C561	C56	0.957730	0.832530	0.285440
O251	O25	0.170020	0.823730	0.304010
O261	O26	0.852410	0.837040	0.291470
O271	O27	0.894650	0.750300	0.262940
O281	O28	0.121580	0.738290	0.280750
N71	N7	0.022990	0.986430	0.296110
Co81	Co8	0.191770	0.323140	0.739860
C571	C57	0.010170	0.200600	0.714680
H221	H22	0.008200	0.242100	0.718600
C581	C58	0.065560	0.172990	0.709020
C591	C59	0.895570	0.196630	0.720790
C601	C60	0.124010	0.206900	0.707840
C611	C61	0.015540	0.077840	0.705800
C621	C62	0.068360	0.111040	0.704790
H231	H23	0.105200	0.091800	0.701300
C631	C63	0.960530	0.106350	0.710740
H241	H24	0.925400	0.083800	0.711500
C641	C64	0.957730	0.167470	0.714560
O291	O29	0.170020	0.176270	0.695990
O301	O30	0.852410	0.162960	0.708530
O311	O31	0.894650	0.249700	0.737060
O321	O32	0.121580	0.261710	0.719250
N81	N8	0.022990	0.013570	0.703890
Co91	Co9	0.260140	0.808230	0.323140
C651	C65	0.285320	0.989830	0.200600
H251	H25	0.281400	0.991800	0.242100
C661	C66	0.290980	0.934440	0.172990
C671	C67	0.279210	0.104430	0.196630
C681	C68	0.292160	0.875990	0.206900
C691	C69	0.294200	0.984460	0.077840
C701	C70	0.295210	0.931640	0.111040
H261	H26	0.298700	0.894800	0.091800
C711	C71	0.289260	0.039470	0.106350
H271	H27	0.288500	0.074600	0.083800
C721	C72	0.285440	0.042270	0.167470
O331	O33	0.304010	0.829980	0.176270
O341	O34	0.291470	0.147590	0.162960
O351	O35	0.262940	0.105350	0.249700
O361	O36	0.280750	0.878420	0.261710
N91	N9	0.296110	0.977010	0.013570
Co101	Co10	0.739860	0.808230	0.676860
C731	C73	0.714680	0.989830	0.799400
H281	H28	0.718600	0.991800	0.757900
C741	C74	0.709020	0.934440	0.827010
C751	C75	0.720790	0.104430	0.803370
C761	C76	0.707840	0.875990	0.793100
C771	C77	0.705800	0.984460	0.922160
C781	C78	0.704790	0.931640	0.888960
H291	H29	0.701300	0.894800	0.908200
C791	C79	0.710740	0.039470	0.893650
H301	H30	0.711500	0.074600	0.916200
C801	C80	0.714560	0.042270	0.832530
O371	O37	0.695990	0.829980	0.823730
O381	O38	0.708530	0.147590	0.837040
O391	O39	0.737060	0.105350	0.750300
O401	O40	0.719250	0.878420	0.738290
N101	N10	0.703890	0.977010	0.986430
Co111	Co11	0.260140	0.191770	0.676860
C811	C81	0.285320	0.010170	0.799400
H311	H31	0.281400	0.008200	0.757900
C821	C82	0.290980	0.065560	0.827010
C831	C83	0.279210	0.895570	0.803370
C841	C84	0.292160	0.124010	0.793100
C851	C85	0.294200	0.015540	0.922160
C861	C86	0.295210	0.068360	0.888960
H321	H32	0.298700	0.105200	0.908200
C871	C87	0.289260	0.960530	0.893650
H331	H33	0.288500	0.925400	0.916200
C881	C88	0.285440	0.957730	0.832530
O411	O41	0.304010	0.170020	0.823730
O421	O42	0.291470	0.852410	0.837040
O431	O43	0.262940	0.894650	0.750300
O441	O44	0.280750	0.121580	0.738290
N111	N11	0.296110	0.022990	0.986430
Co121	Co12	0.739860	0.191770	0.323140
C891	C89	0.714680	0.010170	0.200600
H341	H34	0.718600	0.008200	0.242100
C901	C90	0.709020	0.065560	0.172990
C911	C91	0.720790	0.895570	0.196630
C921	C92	0.707840	0.124010	0.206900
C931	C93	0.705800	0.015540	0.077840
C941	C94	0.704790	0.068360	0.111040
H351	H35	0.701300	0.105200	0.091800
C951	C95	0.710740	0.960530	0.106350
H361	H36	0.711500	0.925400	0.083800
C961	C96	0.714560	0.957730	0.167470
O451	O45	0.695990	0.170020	0.176270
O461	O46	0.708530	0.852410	0.162960
O471	O47	0.737060	0.894650	0.249700
O481	O48	0.719250	0.121580	0.261710
N121	N12	0.703890	0.022990	0.013570
Co131	Co13	0.760140	0.823140	0.308230
C971	C97	0.785320	0.700600	0.489830
H371	H37	0.781400	0.742100	0.491800
C981	C98	0.790980	0.672990	0.434440
C991	C99	0.779210	0.696630	0.604430
C1001	C100	0.792160	0.706900	0.375990
C1011	C101	0.794200	0.577840	0.484460
C1021	C102	0.795210	0.611040	0.431640
H381	H38	0.798700	0.591800	0.394800
C1031	C103	0.789260	0.606350	0.539470
H391	H39	0.788500	0.583800	0.574600
C1041	C104	0.785440	0.667470	0.542270
O491	O49	0.804010	0.676270	0.329980
O501	O50	0.791470	0.662960	0.647590
O511	O51	0.762940	0.749700	0.605350
O521	O52	0.780750	0.761710	0.378420
N131	N13	0.796110	0.513570	0.477010
Co141	Co14	0.239860	0.176860	0.308230
C1051	C105	0.214680	0.299400	0.489830
H401	H40	0.218600	0.257900	0.491800
C1061	C106	0.209020	0.327010	0.434440
C1071	C107	0.220790	0.303370	0.604430
C1081	C108	0.207840	0.293100	0.375990
C1091	C109	0.205800	0.422160	0.484460
C1101	C110	0.204790	0.388960	0.431640
H411	H41	0.201300	0.408200	0.394800
C1111	C111	0.210740	0.393650	0.539470
H421	H42	0.211500	0.416200	0.574600
C1121	C112	0.214560	0.332530	0.542270
O531	O53	0.195990	0.323730	0.329980
O541	O54	0.208530	0.337040	0.647590
O551	O55	0.237060	0.250300	0.605350
O561	O56	0.219250	0.238290	0.378420
N141	N14	0.203890	0.486430	0.477010
Co151	Co15	0.760140	0.176860	0.691770
C1131	C113	0.785320	0.299400	0.510170
H431	H43	0.781400	0.257900	0.508200
C1141	C114	0.790980	0.327010	0.565560
C1151	C115	0.779210	0.303370	0.395570
C1161	C116	0.792160	0.293100	0.624010
C1171	C117	0.794200	0.422160	0.515540
C1181	C118	0.795210	0.388960	0.568360
H441	H44	0.798700	0.408200	0.605200
C1191	C119	0.789260	0.393650	0.460530
H451	H45	0.788500	0.416200	0.425400
C1201	C120	0.785440	0.332530	0.457730
O571	O57	0.804010	0.323730	0.670020
O581	O58	0.791470	0.337040	0.352410
O591	O59	0.762940	0.250300	0.394650
O601	O60	0.780750	0.238290	0.621580
N151	N15	0.796110	0.486430	0.522990
Co161	Co16	0.239860	0.823140	0.691770
C1211	C121	0.214680	0.700600	0.510170
H461	H46	0.218600	0.742100	0.508200
C1221	C122	0.209020	0.672990	0.565560
C1231	C123	0.220790	0.696630	0.395570
C1241	C124	0.207840	0.706900	0.624010
C1251	C125	0.205800	0.577840	0.515540
C1261	C126	0.204790	0.611040	0.568360
H471	H47	0.201300	0.591800	0.605200
C1271	C127	0.210740	0.606350	0.460530
H481	H48	0.211500	0.583800	0.425400
C1281	C128	0.214560	0.667470	0.457730
O611	O61	0.195990	0.676270	0.670020
O621	O62	0.208530	0.662960	0.352410
O631	O63	0.237060	0.749700	0.394650
O641	O64	0.219250	0.761710	0.621580
N161	N16	0.203890	0.513570	0.522990
Co171	Co17	0.823140	0.308230	0.760140
C1291	C129	0.700600	0.489830	0.785320
H491	H49	0.742100	0.491800	0.781400
C1301	C130	0.672990	0.434440	0.790980
C1311	C131	0.696630	0.604430	0.779210
C1321	C132	0.706900	0.375990	0.792160
C1331	C133	0.577840	0.484460	0.794200
C1341	C134	0.611040	0.431640	0.795210
H501	H50	0.591800	0.394800	0.798700
C1351	C135	0.606350	0.539470	0.789260
H511	H51	0.583800	0.574600	0.788500
C1361	C136	0.667470	0.542270	0.785440
O651	O65	0.676270	0.329980	0.804010
O661	O66	0.662960	0.647590	0.791470
O671	O67	0.749700	0.605350	0.762940
O681	O68	0.761710	0.378420	0.780750
N171	N17	0.513570	0.477010	0.796110
Co181	Co18	0.176860	0.308230	0.239860
C1371	C137	0.299400	0.489830	0.214680
H521	H52	0.257900	0.491800	0.218600
C1381	C138	0.327010	0.434440	0.209020
C1391	C139	0.303370	0.604430	0.220790
C1401	C140	0.293100	0.375990	0.207840
C1411	C141	0.422160	0.484460	0.205800
C1421	C142	0.388960	0.431640	0.204790
H531	H53	0.408200	0.394800	0.201300
C1431	C143	0.393650	0.539470	0.210740
H541	H54	0.416200	0.574600	0.211500
C1441	C144	0.332530	0.542270	0.214560
O691	O69	0.323730	0.329980	0.195990
O701	O70	0.337040	0.647590	0.208530
O711	O71	0.250300	0.605350	0.237060
O721	O72	0.238290	0.378420	0.219250
N181	N18	0.486430	0.477010	0.203890
Co191	Co19	0.176860	0.691770	0.760140
C1451	C145	0.299400	0.510170	0.785320
H551	H55	0.257900	0.508200	0.781400
C1461	C146	0.327010	0.565560	0.790980
C1471	C147	0.303370	0.395570	0.779210
C1481	C148	0.293100	0.624010	0.792160
C1491	C149	0.422160	0.515540	0.794200
C1501	C150	0.388960	0.568360	0.795210
H561	H56	0.408200	0.605200	0.798700
C1511	C151	0.393650	0.460530	0.789260
H571	H57	0.416200	0.425400	0.788500
C1521	C152	0.332530	0.457730	0.785440
O731	O73	0.323730	0.670020	0.804010
O741	O74	0.337040	0.352410	0.791470
O751	O75	0.250300	0.394650	0.762940
O761	O76	0.238290	0.621580	0.780750
N191	N19	0.486430	0.522990	0.796110
Co201	Co20	0.823140	0.691770	0.239860
C1531	C153	0.700600	0.510170	0.214680
H581	H58	0.742100	0.508200	0.218600
C1541	C154	0.672990	0.565560	0.209020
C1551	C155	0.696630	0.395570	0.220790
C1561	C156	0.706900	0.624010	0.207840
C1571	C157	0.577840	0.515540	0.205800
C1581	C158	0.611040	0.568360	0.204790
H591	H59	0.591800	0.605200	0.201300
C1591	C159	0.606350	0.460530	0.210740
H601	H60	0.583800	0.425400	0.211500
C1601	C160	0.667470	0.457730	0.214560
O771	O77	0.676270	0.670020	0.195990
O781	O78	0.662960	0.352410	0.208530
O791	O79	0.749700	0.394650	0.237060
O801	O80	0.761710	0.621580	0.219250
N201	N20	0.513570	0.522990	0.203890
Co211	Co21	0.308230	0.760140	0.823140
C1611	C161	0.489830	0.785320	0.700600
H611	H61	0.491800	0.781400	0.742100
C1621	C162	0.434440	0.790980	0.672990
C1631	C163	0.604430	0.779210	0.696630
C1641	C164	0.375990	0.792160	0.706900
C1651	C165	0.484460	0.794200	0.577840
C1661	C166	0.431640	0.795210	0.611040
H621	H62	0.394800	0.798700	0.591800
C1671	C167	0.539470	0.789260	0.606350
H631	H63	0.574600	0.788500	0.583800
C1681	C168	0.542270	0.785440	0.667470
O811	O81	0.329980	0.804010	0.676270
O821	O82	0.647590	0.791470	0.662960
O831	O83	0.605350	0.762940	0.749700
O841	O84	0.378420	0.780750	0.761710
N211	N21	0.477010	0.796110	0.513570
Co221	Co22	0.308230	0.239860	0.176860
C1691	C169	0.489830	0.214680	0.299400
H641	H64	0.491800	0.218600	0.257900
C1701	C170	0.434440	0.209020	0.327010
C1711	C171	0.604430	0.220790	0.303370
C1721	C172	0.375990	0.207840	0.293100
C1731	C173	0.484460	0.205800	0.422160
C1741	C174	0.431640	0.204790	0.388960
H651	H65	0.394800	0.201300	0.408200
C1751	C175	0.539470	0.210740	0.393650
H661	H66	0.574600	0.211500	0.416200
C1761	C176	0.542270	0.214560	0.332530
O851	O85	0.329980	0.195990	0.323730
O861	O86	0.647590	0.208530	0.337040
O871	O87	0.605350	0.237060	0.250300
O881	O88	0.378420	0.219250	0.238290
N221	N22	0.477010	0.203890	0.486430
Co231	Co23	0.691770	0.760140	0.176860
C1771	C177	0.510170	0.785320	0.299400
H671	H67	0.508200	0.781400	0.257900
C1781	C178	0.565560	0.790980	0.327010
C1791	C179	0.395570	0.779210	0.303370
C1801	C180	0.624010	0.792160	0.293100
C1811	C181	0.515540	0.794200	0.422160
C1821	C182	0.568360	0.795210	0.388960
H681	H68	0.605200	0.798700	0.408200
C1831	C183	0.460530	0.789260	0.393650
H691	H69	0.425400	0.788500	0.416200
C1841	C184	0.457730	0.785440	0.332530
O891	O89	0.670020	0.804010	0.323730
O901	O90	0.352410	0.791470	0.337040
O911	O91	0.394650	0.762940	0.250300
O921	O92	0.621580	0.780750	0.238290
N231	N23	0.522990	0.796110	0.486430
Co241	Co24	0.691770	0.239860	0.823140
C1851	C185	0.510170	0.214680	0.700600
H701	H70	0.508200	0.218600	0.742100
C1861	C186	0.565560	0.209020	0.672990
C1871	C187	0.395570	0.220790	0.696630
C1881	C188	0.624010	0.207840	0.706900
C1891	C189	0.515540	0.205800	0.577840
C1901	C190	0.568360	0.204790	0.611040
H711	H71	0.605200	0.201300	0.591800
C1911	C191	0.460530	0.210740	0.606350
H721	H72	0.425400	0.211500	0.583800
C1921	C192	0.457730	0.214560	0.667470
O931	O93	0.670020	0.195990	0.676270
O941	O94	0.352410	0.208530	0.662960
O951	O95	0.394650	0.237060	0.749700
O961	O96	0.621580	0.219250	0.761710
N241	N24	0.522990	0.203890	0.513570
O971	O97	0.263550	0.263550	0.736450
O981	O98	0.736450	0.736450	0.736450
O991	O99	0.736450	0.263550	0.263550
O1001	O100	0.263550	0.736450	0.263550
O1011	O101	0.763550	0.763550	0.236450
O1021	O102	0.236450	0.236450	0.236450
O1031	O103	0.763550	0.236450	0.763550
O1041	O104	0.236450	0.763550	0.763550
