data_VALXAK_clean_PM
_symmetry_space_group_name_H-M	'P1'
_cell_length_a	22.305100
_cell_length_b	22.305100
_cell_length_c	22.305100
_cell_angle_alpha	90.000000
_cell_angle_beta	90.000000
_cell_angle_gamma	90.000000
_symmetry_Int_Tables_number 1

loop_
_symmetry_equiv_pos_as_xyz
'x,y,z'

loop_
_atom_site_label
_atom_site_type_symbol
_atom_site_fract_x
_atom_site_fract_y
_atom_site_fract_z
Mg11	Mg1	0.176770	0.240630	0.690840
C11	C1	0.332570	0.216000	0.456700
C21	C2	0.299160	0.215890	0.510220
H11	H1	0.257700	0.219800	0.508400
C31	C3	0.326500	0.210160	0.565180
C41	C4	0.388910	0.207200	0.566620
H21	H2	0.408500	0.202800	0.603200
C51	C5	0.421660	0.210700	0.515190
C61	C6	0.393750	0.212300	0.460570
H31	H3	0.416600	0.210900	0.425700
C71	C7	0.292500	0.208810	0.622960
C81	C8	0.303080	0.221550	0.395150
O11	O1	0.250190	0.239380	0.393440
O21	O2	0.335950	0.207500	0.351910
O31	O3	0.322530	0.194170	0.669200
O41	O4	0.238300	0.223190	0.621590
N11	N1	0.486470	0.206500	0.522480
Mg21	Mg2	0.823230	0.759370	0.690840
C91	C9	0.667430	0.784000	0.456700
C101	C10	0.700840	0.784110	0.510220
H41	H4	0.742300	0.780200	0.508400
C111	C11	0.673500	0.789840	0.565180
C121	C12	0.611090	0.792800	0.566620
H51	H5	0.591500	0.797200	0.603200
C131	C13	0.578340	0.789300	0.515190
C141	C14	0.606250	0.787700	0.460570
H61	H6	0.583400	0.789100	0.425700
C151	C15	0.707500	0.791190	0.622960
C161	C16	0.696920	0.778450	0.395150
O51	O5	0.749810	0.760620	0.393440
O61	O6	0.664050	0.792500	0.351910
O71	O7	0.677470	0.805830	0.669200
O81	O8	0.761700	0.776810	0.621590
N21	N2	0.513530	0.793500	0.522480
Mg31	Mg3	0.823230	0.240630	0.309160
C171	C17	0.667430	0.216000	0.543300
C181	C18	0.700840	0.215890	0.489780
H71	H7	0.742300	0.219800	0.491600
C191	C19	0.673500	0.210160	0.434820
C201	C20	0.611090	0.207200	0.433380
H81	H8	0.591500	0.202800	0.396800
C211	C21	0.578340	0.210700	0.484810
C221	C22	0.606250	0.212300	0.539430
H91	H9	0.583400	0.210900	0.574300
C231	C23	0.707500	0.208810	0.377040
C241	C24	0.696920	0.221550	0.604850
O91	O9	0.749810	0.239380	0.606560
O101	O10	0.664050	0.207500	0.648090
O111	O11	0.677470	0.194170	0.330800
O121	O12	0.761700	0.223190	0.378410
N31	N3	0.513530	0.206500	0.477520
Mg41	Mg4	0.176770	0.759370	0.309160
C251	C25	0.332570	0.784000	0.543300
C261	C26	0.299160	0.784110	0.489780
H101	H10	0.257700	0.780200	0.491600
C271	C27	0.326500	0.789840	0.434820
C281	C28	0.388910	0.792800	0.433380
H111	H11	0.408500	0.797200	0.396800
C291	C29	0.421660	0.789300	0.484810
C301	C30	0.393750	0.787700	0.539430
H121	H12	0.416600	0.789100	0.574300
C311	C31	0.292500	0.791190	0.377040
C321	C32	0.303080	0.778450	0.604850
O131	O13	0.250190	0.760620	0.606560
O141	O14	0.335950	0.792500	0.648090
O151	O15	0.322530	0.805830	0.330800
O161	O16	0.238300	0.776810	0.378410
N41	N4	0.486470	0.793500	0.477520
Mg51	Mg5	0.690840	0.176770	0.240630
C331	C33	0.456700	0.332570	0.216000
C341	C34	0.510220	0.299160	0.215890
H131	H13	0.508400	0.257700	0.219800
C351	C35	0.565180	0.326500	0.210160
C361	C36	0.566620	0.388910	0.207200
H141	H14	0.603200	0.408500	0.202800
C371	C37	0.515190	0.421660	0.210700
C381	C38	0.460570	0.393750	0.212300
H151	H15	0.425700	0.416600	0.210900
C391	C39	0.622960	0.292500	0.208810
C401	C40	0.395150	0.303080	0.221550
O171	O17	0.393440	0.250190	0.239380
O181	O18	0.351910	0.335950	0.207500
O191	O19	0.669200	0.322530	0.194170
O201	O20	0.621590	0.238300	0.223190
N51	N5	0.522480	0.486470	0.206500
Mg61	Mg6	0.690840	0.823230	0.759370
C411	C41	0.456700	0.667430	0.784000
C421	C42	0.510220	0.700840	0.784110
H161	H16	0.508400	0.742300	0.780200
C431	C43	0.565180	0.673500	0.789840
C441	C44	0.566620	0.611090	0.792800
H171	H17	0.603200	0.591500	0.797200
C451	C45	0.515190	0.578340	0.789300
C461	C46	0.460570	0.606250	0.787700
H181	H18	0.425700	0.583400	0.789100
C471	C47	0.622960	0.707500	0.791190
C481	C48	0.395150	0.696920	0.778450
O211	O21	0.393440	0.749810	0.760620
O221	O22	0.351910	0.664050	0.792500
O231	O23	0.669200	0.677470	0.805830
O241	O24	0.621590	0.761700	0.776810
N61	N6	0.522480	0.513530	0.793500
Mg71	Mg7	0.309160	0.823230	0.240630
C491	C49	0.543300	0.667430	0.216000
C501	C50	0.489780	0.700840	0.215890
H191	H19	0.491600	0.742300	0.219800
C511	C51	0.434820	0.673500	0.210160
C521	C52	0.433380	0.611090	0.207200
H201	H20	0.396800	0.591500	0.202800
C531	C53	0.484810	0.578340	0.210700
C541	C54	0.539430	0.606250	0.212300
H211	H21	0.574300	0.583400	0.210900
C551	C55	0.377040	0.707500	0.208810
C561	C56	0.604850	0.696920	0.221550
O251	O25	0.606560	0.749810	0.239380
O261	O26	0.648090	0.664050	0.207500
O271	O27	0.330800	0.677470	0.194170
O281	O28	0.378410	0.761700	0.223190
N71	N7	0.477520	0.513530	0.206500
Mg81	Mg8	0.309160	0.176770	0.759370
C571	C57	0.543300	0.332570	0.784000
C581	C58	0.489780	0.299160	0.784110
H221	H22	0.491600	0.257700	0.780200
C591	C59	0.434820	0.326500	0.789840
C601	C60	0.433380	0.388910	0.792800
H231	H23	0.396800	0.408500	0.797200
C611	C61	0.484810	0.421660	0.789300
C621	C62	0.539430	0.393750	0.787700
H241	H24	0.574300	0.416600	0.789100
C631	C63	0.377040	0.292500	0.791190
C641	C64	0.604850	0.303080	0.778450
O291	O29	0.606560	0.250190	0.760620
O301	O30	0.648090	0.335950	0.792500
O311	O31	0.330800	0.322530	0.805830
O321	O32	0.378410	0.238300	0.776810
N81	N8	0.477520	0.486470	0.793500
Mg91	Mg9	0.240630	0.690840	0.176770
C651	C65	0.216000	0.456700	0.332570
C661	C66	0.215890	0.510220	0.299160
H251	H25	0.219800	0.508400	0.257700
C671	C67	0.210160	0.565180	0.326500
C681	C68	0.207200	0.566620	0.388910
H261	H26	0.202800	0.603200	0.408500
C691	C69	0.210700	0.515190	0.421660
C701	C70	0.212300	0.460570	0.393750
H271	H27	0.210900	0.425700	0.416600
C711	C71	0.208810	0.622960	0.292500
C721	C72	0.221550	0.395150	0.303080
O331	O33	0.239380	0.393440	0.250190
O341	O34	0.207500	0.351910	0.335950
O351	O35	0.194170	0.669200	0.322530
O361	O36	0.223190	0.621590	0.238300
N91	N9	0.206500	0.522480	0.486470
Mg101	Mg10	0.759370	0.690840	0.823230
C731	C73	0.784000	0.456700	0.667430
C741	C74	0.784110	0.510220	0.700840
H281	H28	0.780200	0.508400	0.742300
C751	C75	0.789840	0.565180	0.673500
C761	C76	0.792800	0.566620	0.611090
H291	H29	0.797200	0.603200	0.591500
C771	C77	0.789300	0.515190	0.578340
C781	C78	0.787700	0.460570	0.606250
H301	H30	0.789100	0.425700	0.583400
C791	C79	0.791190	0.622960	0.707500
C801	C80	0.778450	0.395150	0.696920
O371	O37	0.760620	0.393440	0.749810
O381	O38	0.792500	0.351910	0.664050
O391	O39	0.805830	0.669200	0.677470
O401	O40	0.776810	0.621590	0.761700
N101	N10	0.793500	0.522480	0.513530
Mg111	Mg11	0.240630	0.309160	0.823230
C811	C81	0.216000	0.543300	0.667430
C821	C82	0.215890	0.489780	0.700840
H311	H31	0.219800	0.491600	0.742300
C831	C83	0.210160	0.434820	0.673500
C841	C84	0.207200	0.433380	0.611090
H321	H32	0.202800	0.396800	0.591500
C851	C85	0.210700	0.484810	0.578340
C861	C86	0.212300	0.539430	0.606250
H331	H33	0.210900	0.574300	0.583400
C871	C87	0.208810	0.377040	0.707500
C881	C88	0.221550	0.604850	0.696920
O411	O41	0.239380	0.606560	0.749810
O421	O42	0.207500	0.648090	0.664050
O431	O43	0.194170	0.330800	0.677470
O441	O44	0.223190	0.378410	0.761700
N111	N11	0.206500	0.477520	0.513530
Mg121	Mg12	0.759370	0.309160	0.176770
C891	C89	0.784000	0.543300	0.332570
C901	C90	0.784110	0.489780	0.299160
H341	H34	0.780200	0.491600	0.257700
C911	C91	0.789840	0.434820	0.326500
C921	C92	0.792800	0.433380	0.388910
H351	H35	0.797200	0.396800	0.408500
C931	C93	0.789300	0.484810	0.421660
C941	C94	0.787700	0.539430	0.393750
H361	H36	0.789100	0.574300	0.416600
C951	C95	0.791190	0.377040	0.292500
C961	C96	0.778450	0.604850	0.303080
O451	O45	0.760620	0.606560	0.250190
O461	O46	0.792500	0.648090	0.335950
O471	O47	0.805830	0.330800	0.322530
O481	O48	0.776810	0.378410	0.238300
N121	N12	0.793500	0.477520	0.486470
Mg131	Mg13	0.740630	0.676770	0.190840
C971	C97	0.716000	0.832570	0.956700
C981	C98	0.715890	0.799160	0.010220
H371	H37	0.719800	0.757700	0.008400
C991	C99	0.710160	0.826500	0.065180
C1001	C100	0.707200	0.888910	0.066620
H381	H38	0.702800	0.908500	0.103200
C1011	C101	0.710700	0.921660	0.015190
C1021	C102	0.712300	0.893750	0.960570
H391	H39	0.710900	0.916600	0.925700
C1031	C103	0.708810	0.792500	0.122960
C1041	C104	0.721550	0.803080	0.895150
O491	O49	0.739380	0.750190	0.893440
O501	O50	0.707500	0.835950	0.851910
O511	O51	0.694170	0.822530	0.169200
O521	O52	0.723190	0.738300	0.121590
N131	N13	0.706500	0.986470	0.022480
Mg141	Mg14	0.259370	0.323230	0.190840
C1051	C105	0.284000	0.167430	0.956700
C1061	C106	0.284110	0.200840	0.010220
H401	H40	0.280200	0.242300	0.008400
C1071	C107	0.289840	0.173500	0.065180
C1081	C108	0.292800	0.111090	0.066620
H411	H41	0.297200	0.091500	0.103200
C1091	C109	0.289300	0.078340	0.015190
C1101	C110	0.287700	0.106250	0.960570
H421	H42	0.289100	0.083400	0.925700
C1111	C111	0.291190	0.207500	0.122960
C1121	C112	0.278450	0.196920	0.895150
O531	O53	0.260620	0.249810	0.893440
O541	O54	0.292500	0.164050	0.851910
O551	O55	0.305830	0.177470	0.169200
O561	O56	0.276810	0.261700	0.121590
N141	N14	0.293500	0.013530	0.022480
Mg151	Mg15	0.740630	0.323230	0.809160
C1131	C113	0.716000	0.167430	0.043300
C1141	C114	0.715890	0.200840	0.989780
H431	H43	0.719800	0.242300	0.991600
C1151	C115	0.710160	0.173500	0.934820
C1161	C116	0.707200	0.111090	0.933380
H441	H44	0.702800	0.091500	0.896800
C1171	C117	0.710700	0.078340	0.984810
C1181	C118	0.712300	0.106250	0.039430
H451	H45	0.710900	0.083400	0.074300
C1191	C119	0.708810	0.207500	0.877040
C1201	C120	0.721550	0.196920	0.104850
O571	O57	0.739380	0.249810	0.106560
O581	O58	0.707500	0.164050	0.148090
O591	O59	0.694170	0.177470	0.830800
O601	O60	0.723190	0.261700	0.878410
N151	N15	0.706500	0.013530	0.977520
Mg161	Mg16	0.259370	0.676770	0.809160
C1211	C121	0.284000	0.832570	0.043300
C1221	C122	0.284110	0.799160	0.989780
H461	H46	0.280200	0.757700	0.991600
C1231	C123	0.289840	0.826500	0.934820
C1241	C124	0.292800	0.888910	0.933380
H471	H47	0.297200	0.908500	0.896800
C1251	C125	0.289300	0.921660	0.984810
C1261	C126	0.287700	0.893750	0.039430
H481	H48	0.289100	0.916600	0.074300
C1271	C127	0.291190	0.792500	0.877040
C1281	C128	0.278450	0.803080	0.104850
O611	O61	0.260620	0.750190	0.106560
O621	O62	0.292500	0.835950	0.148090
O631	O63	0.305830	0.822530	0.830800
O641	O64	0.276810	0.738300	0.878410
N161	N16	0.293500	0.986470	0.977520
Mg171	Mg17	0.676770	0.190840	0.740630
C1291	C129	0.832570	0.956700	0.716000
C1301	C130	0.799160	0.010220	0.715890
H491	H49	0.757700	0.008400	0.719800
C1311	C131	0.826500	0.065180	0.710160
C1321	C132	0.888910	0.066620	0.707200
H501	H50	0.908500	0.103200	0.702800
C1331	C133	0.921660	0.015190	0.710700
C1341	C134	0.893750	0.960570	0.712300
H511	H51	0.916600	0.925700	0.710900
C1351	C135	0.792500	0.122960	0.708810
C1361	C136	0.803080	0.895150	0.721550
O651	O65	0.750190	0.893440	0.739380
O661	O66	0.835950	0.851910	0.707500
O671	O67	0.822530	0.169200	0.694170
O681	O68	0.738300	0.121590	0.723190
N171	N17	0.986470	0.022480	0.706500
Mg181	Mg18	0.323230	0.190840	0.259370
C1371	C137	0.167430	0.956700	0.284000
C1381	C138	0.200840	0.010220	0.284110
H521	H52	0.242300	0.008400	0.280200
C1391	C139	0.173500	0.065180	0.289840
C1401	C140	0.111090	0.066620	0.292800
H531	H53	0.091500	0.103200	0.297200
C1411	C141	0.078340	0.015190	0.289300
C1421	C142	0.106250	0.960570	0.287700
H541	H54	0.083400	0.925700	0.289100
C1431	C143	0.207500	0.122960	0.291190
C1441	C144	0.196920	0.895150	0.278450
O691	O69	0.249810	0.893440	0.260620
O701	O70	0.164050	0.851910	0.292500
O711	O71	0.177470	0.169200	0.305830
O721	O72	0.261700	0.121590	0.276810
N181	N18	0.013530	0.022480	0.293500
Mg191	Mg19	0.323230	0.809160	0.740630
C1451	C145	0.167430	0.043300	0.716000
C1461	C146	0.200840	0.989780	0.715890
H551	H55	0.242300	0.991600	0.719800
C1471	C147	0.173500	0.934820	0.710160
C1481	C148	0.111090	0.933380	0.707200
H561	H56	0.091500	0.896800	0.702800
C1491	C149	0.078340	0.984810	0.710700
C1501	C150	0.106250	0.039430	0.712300
H571	H57	0.083400	0.074300	0.710900
C1511	C151	0.207500	0.877040	0.708810
C1521	C152	0.196920	0.104850	0.721550
O731	O73	0.249810	0.106560	0.739380
O741	O74	0.164050	0.148090	0.707500
O751	O75	0.177470	0.830800	0.694170
O761	O76	0.261700	0.878410	0.723190
N191	N19	0.013530	0.977520	0.706500
Mg201	Mg20	0.676770	0.809160	0.259370
C1531	C153	0.832570	0.043300	0.284000
C1541	C154	0.799160	0.989780	0.284110
H581	H58	0.757700	0.991600	0.280200
C1551	C155	0.826500	0.934820	0.289840
C1561	C156	0.888910	0.933380	0.292800
H591	H59	0.908500	0.896800	0.297200
C1571	C157	0.921660	0.984810	0.289300
C1581	C158	0.893750	0.039430	0.287700
H601	H60	0.916600	0.074300	0.289100
C1591	C159	0.792500	0.877040	0.291190
C1601	C160	0.803080	0.104850	0.278450
O771	O77	0.750190	0.106560	0.260620
O781	O78	0.835950	0.148090	0.292500
O791	O79	0.822530	0.830800	0.305830
O801	O80	0.738300	0.878410	0.276810
N201	N20	0.986470	0.977520	0.293500
Mg211	Mg21	0.190840	0.740630	0.676770
C1611	C161	0.956700	0.716000	0.832570
C1621	C162	0.010220	0.715890	0.799160
H611	H61	0.008400	0.719800	0.757700
C1631	C163	0.065180	0.710160	0.826500
C1641	C164	0.066620	0.707200	0.888910
H621	H62	0.103200	0.702800	0.908500
C1651	C165	0.015190	0.710700	0.921660
C1661	C166	0.960570	0.712300	0.893750
H631	H63	0.925700	0.710900	0.916600
C1671	C167	0.122960	0.708810	0.792500
C1681	C168	0.895150	0.721550	0.803080
O811	O81	0.893440	0.739380	0.750190
O821	O82	0.851910	0.707500	0.835950
O831	O83	0.169200	0.694170	0.822530
O841	O84	0.121590	0.723190	0.738300
N211	N21	0.022480	0.706500	0.986470
Mg221	Mg22	0.190840	0.259370	0.323230
C1691	C169	0.956700	0.284000	0.167430
C1701	C170	0.010220	0.284110	0.200840
H641	H64	0.008400	0.280200	0.242300
C1711	C171	0.065180	0.289840	0.173500
C1721	C172	0.066620	0.292800	0.111090
H651	H65	0.103200	0.297200	0.091500
C1731	C173	0.015190	0.289300	0.078340
C1741	C174	0.960570	0.287700	0.106250
H661	H66	0.925700	0.289100	0.083400
C1751	C175	0.122960	0.291190	0.207500
C1761	C176	0.895150	0.278450	0.196920
O851	O85	0.893440	0.260620	0.249810
O861	O86	0.851910	0.292500	0.164050
O871	O87	0.169200	0.305830	0.177470
O881	O88	0.121590	0.276810	0.261700
N221	N22	0.022480	0.293500	0.013530
Mg231	Mg23	0.809160	0.740630	0.323230
C1771	C177	0.043300	0.716000	0.167430
C1781	C178	0.989780	0.715890	0.200840
H671	H67	0.991600	0.719800	0.242300
C1791	C179	0.934820	0.710160	0.173500
C1801	C180	0.933380	0.707200	0.111090
H681	H68	0.896800	0.702800	0.091500
C1811	C181	0.984810	0.710700	0.078340
C1821	C182	0.039430	0.712300	0.106250
H691	H69	0.074300	0.710900	0.083400
C1831	C183	0.877040	0.708810	0.207500
C1841	C184	0.104850	0.721550	0.196920
O891	O89	0.106560	0.739380	0.249810
O901	O90	0.148090	0.707500	0.164050
O911	O91	0.830800	0.694170	0.177470
O921	O92	0.878410	0.723190	0.261700
N231	N23	0.977520	0.706500	0.013530
Mg241	Mg24	0.809160	0.259370	0.676770
C1851	C185	0.043300	0.284000	0.832570
C1861	C186	0.989780	0.284110	0.799160
H701	H70	0.991600	0.280200	0.757700
C1871	C187	0.934820	0.289840	0.826500
C1881	C188	0.933380	0.292800	0.888910
H711	H71	0.896800	0.297200	0.908500
C1891	C189	0.984810	0.289300	0.921660
C1901	C190	0.039430	0.287700	0.893750
H721	H72	0.074300	0.289100	0.916600
C1911	C191	0.877040	0.291190	0.792500
C1921	C192	0.104850	0.278450	0.803080
O931	O93	0.106560	0.260620	0.750190
O941	O94	0.148090	0.292500	0.835950
O951	O95	0.830800	0.305830	0.822530
O961	O96	0.878410	0.276810	0.738300
N241	N24	0.977520	0.293500	0.986470
O971	O97	0.238060	0.238060	0.761940
O981	O98	0.761940	0.761940	0.761940
O991	O99	0.761940	0.238060	0.238060
O1001	O100	0.238060	0.761940	0.238060
O1011	O101	0.738060	0.738060	0.261940
O1021	O102	0.261940	0.261940	0.261940
O1031	O103	0.738060	0.261940	0.738060
O1041	O104	0.261940	0.738060	0.738060
