data_VALXEO_clean_PM
_symmetry_space_group_name_H-M	'P1'
_cell_length_a	22.470400
_cell_length_b	22.470400
_cell_length_c	22.470400
_cell_angle_alpha	90.000000
_cell_angle_beta	90.000000
_cell_angle_gamma	90.000000
_symmetry_Int_Tables_number 1

loop_
_symmetry_equiv_pos_as_xyz
'x,y,z'

loop_
_atom_site_label
_atom_site_type_symbol
_atom_site_fract_x
_atom_site_fract_y
_atom_site_fract_z
Mn11	Mn1	0.176350	0.310400	0.240860
C11	C1	0.206050	0.290900	0.878300
C21	C2	0.195780	0.278950	0.104610
C31	C3	0.166080	0.281100	0.042650
C41	C4	0.199370	0.282910	0.990680
H11	H1	0.240700	0.281200	0.992900
C51	C5	0.172260	0.287220	0.935680
C61	C6	0.105830	0.282100	0.039290
H21	H2	0.083500	0.281600	0.074100
C71	C7	0.110520	0.286900	0.932780
H31	H3	0.091500	0.288800	0.896100
C81	C8	0.077020	0.283800	0.985040
O11	O1	0.175090	0.300770	0.831910
O21	O2	0.162000	0.288840	0.147260
O31	O3	0.249850	0.266950	0.105130
O41	O4	0.261090	0.282130	0.880580
N11	N1	0.013730	0.282900	0.977320
Mn21	Mn2	0.823650	0.689600	0.240860
C91	C9	0.793950	0.709100	0.878300
C101	C10	0.804220	0.721050	0.104610
C111	C11	0.833920	0.718900	0.042650
C121	C12	0.800630	0.717090	0.990680
H41	H4	0.759300	0.718800	0.992900
C131	C13	0.827740	0.712780	0.935680
C141	C14	0.894170	0.717900	0.039290
H51	H5	0.916500	0.718400	0.074100
C151	C15	0.889480	0.713100	0.932780
H61	H6	0.908500	0.711200	0.896100
C161	C16	0.922980	0.716200	0.985040
O51	O5	0.824910	0.699230	0.831910
O61	O6	0.838000	0.711160	0.147260
O71	O7	0.750150	0.733050	0.105130
O81	O8	0.738910	0.717870	0.880580
N21	N2	0.986270	0.717100	0.977320
Mn31	Mn3	0.823650	0.310400	0.759140
C171	C17	0.793950	0.290900	0.121700
C181	C18	0.804220	0.278950	0.895390
C191	C19	0.833920	0.281100	0.957350
C201	C20	0.800630	0.282910	0.009320
H71	H7	0.759300	0.281200	0.007100
C211	C21	0.827740	0.287220	0.064320
C221	C22	0.894170	0.282100	0.960710
H81	H8	0.916500	0.281600	0.925900
C231	C23	0.889480	0.286900	0.067220
H91	H9	0.908500	0.288800	0.103900
C241	C24	0.922980	0.283800	0.014960
O91	O9	0.824910	0.300770	0.168090
O101	O10	0.838000	0.288840	0.852740
O111	O11	0.750150	0.266950	0.894870
O121	O12	0.738910	0.282130	0.119420
N31	N3	0.986270	0.282900	0.022680
Mn41	Mn4	0.176350	0.689600	0.759140
C251	C25	0.206050	0.709100	0.121700
C261	C26	0.195780	0.721050	0.895390
C271	C27	0.166080	0.718900	0.957350
C281	C28	0.199370	0.717090	0.009320
H101	H10	0.240700	0.718800	0.007100
C291	C29	0.172260	0.712780	0.064320
C301	C30	0.105830	0.717900	0.960710
H111	H11	0.083500	0.718400	0.925900
C311	C31	0.110520	0.713100	0.067220
H121	H12	0.091500	0.711200	0.103900
C321	C32	0.077020	0.716200	0.014960
O131	O13	0.175090	0.699230	0.168090
O141	O14	0.162000	0.711160	0.852740
O151	O15	0.249850	0.733050	0.894870
O161	O16	0.261090	0.717870	0.119420
N41	N4	0.013730	0.717100	0.022680
Mn51	Mn5	0.240860	0.176350	0.310400
C331	C33	0.878300	0.206050	0.290900
C341	C34	0.104610	0.195780	0.278950
C351	C35	0.042650	0.166080	0.281100
C361	C36	0.990680	0.199370	0.282910
H131	H13	0.992900	0.240700	0.281200
C371	C37	0.935680	0.172260	0.287220
C381	C38	0.039290	0.105830	0.282100
H141	H14	0.074100	0.083500	0.281600
C391	C39	0.932780	0.110520	0.286900
H151	H15	0.896100	0.091500	0.288800
C401	C40	0.985040	0.077020	0.283800
O171	O17	0.831910	0.175090	0.300770
O181	O18	0.147260	0.162000	0.288840
O191	O19	0.105130	0.249850	0.266950
O201	O20	0.880580	0.261090	0.282130
N51	N5	0.977320	0.013730	0.282900
Mn61	Mn6	0.240860	0.823650	0.689600
C411	C41	0.878300	0.793950	0.709100
C421	C42	0.104610	0.804220	0.721050
C431	C43	0.042650	0.833920	0.718900
C441	C44	0.990680	0.800630	0.717090
H161	H16	0.992900	0.759300	0.718800
C451	C45	0.935680	0.827740	0.712780
C461	C46	0.039290	0.894170	0.717900
H171	H17	0.074100	0.916500	0.718400
C471	C47	0.932780	0.889480	0.713100
H181	H18	0.896100	0.908500	0.711200
C481	C48	0.985040	0.922980	0.716200
O211	O21	0.831910	0.824910	0.699230
O221	O22	0.147260	0.838000	0.711160
O231	O23	0.105130	0.750150	0.733050
O241	O24	0.880580	0.738910	0.717870
N61	N6	0.977320	0.986270	0.717100
Mn71	Mn7	0.759140	0.823650	0.310400
C491	C49	0.121700	0.793950	0.290900
C501	C50	0.895390	0.804220	0.278950
C511	C51	0.957350	0.833920	0.281100
C521	C52	0.009320	0.800630	0.282910
H191	H19	0.007100	0.759300	0.281200
C531	C53	0.064320	0.827740	0.287220
C541	C54	0.960710	0.894170	0.282100
H201	H20	0.925900	0.916500	0.281600
C551	C55	0.067220	0.889480	0.286900
H211	H21	0.103900	0.908500	0.288800
C561	C56	0.014960	0.922980	0.283800
O251	O25	0.168090	0.824910	0.300770
O261	O26	0.852740	0.838000	0.288840
O271	O27	0.894870	0.750150	0.266950
O281	O28	0.119420	0.738910	0.282130
N71	N7	0.022680	0.986270	0.282900
Mn81	Mn8	0.759140	0.176350	0.689600
C571	C57	0.121700	0.206050	0.709100
C581	C58	0.895390	0.195780	0.721050
C591	C59	0.957350	0.166080	0.718900
C601	C60	0.009320	0.199370	0.717090
H221	H22	0.007100	0.240700	0.718800
C611	C61	0.064320	0.172260	0.712780
C621	C62	0.960710	0.105830	0.717900
H231	H23	0.925900	0.083500	0.718400
C631	C63	0.067220	0.110520	0.713100
H241	H24	0.103900	0.091500	0.711200
C641	C64	0.014960	0.077020	0.716200
O291	O29	0.168090	0.175090	0.699230
O301	O30	0.852740	0.162000	0.711160
O311	O31	0.894870	0.249850	0.733050
O321	O32	0.119420	0.261090	0.717870
N81	N8	0.022680	0.013730	0.717100
Mn91	Mn9	0.310400	0.240860	0.176350
C651	C65	0.290900	0.878300	0.206050
C661	C66	0.278950	0.104610	0.195780
C671	C67	0.281100	0.042650	0.166080
C681	C68	0.282910	0.990680	0.199370
H251	H25	0.281200	0.992900	0.240700
C691	C69	0.287220	0.935680	0.172260
C701	C70	0.282100	0.039290	0.105830
H261	H26	0.281600	0.074100	0.083500
C711	C71	0.286900	0.932780	0.110520
H271	H27	0.288800	0.896100	0.091500
C721	C72	0.283800	0.985040	0.077020
O331	O33	0.300770	0.831910	0.175090
O341	O34	0.288840	0.147260	0.162000
O351	O35	0.266950	0.105130	0.249850
O361	O36	0.282130	0.880580	0.261090
N91	N9	0.282900	0.977320	0.013730
Mn101	Mn10	0.689600	0.240860	0.823650
C731	C73	0.709100	0.878300	0.793950
C741	C74	0.721050	0.104610	0.804220
C751	C75	0.718900	0.042650	0.833920
C761	C76	0.717090	0.990680	0.800630
H281	H28	0.718800	0.992900	0.759300
C771	C77	0.712780	0.935680	0.827740
C781	C78	0.717900	0.039290	0.894170
H291	H29	0.718400	0.074100	0.916500
C791	C79	0.713100	0.932780	0.889480
H301	H30	0.711200	0.896100	0.908500
C801	C80	0.716200	0.985040	0.922980
O371	O37	0.699230	0.831910	0.824910
O381	O38	0.711160	0.147260	0.838000
O391	O39	0.733050	0.105130	0.750150
O401	O40	0.717870	0.880580	0.738910
N101	N10	0.717100	0.977320	0.986270
Mn111	Mn11	0.310400	0.759140	0.823650
C811	C81	0.290900	0.121700	0.793950
C821	C82	0.278950	0.895390	0.804220
C831	C83	0.281100	0.957350	0.833920
C841	C84	0.282910	0.009320	0.800630
H311	H31	0.281200	0.007100	0.759300
C851	C85	0.287220	0.064320	0.827740
C861	C86	0.282100	0.960710	0.894170
H321	H32	0.281600	0.925900	0.916500
C871	C87	0.286900	0.067220	0.889480
H331	H33	0.288800	0.103900	0.908500
C881	C88	0.283800	0.014960	0.922980
O411	O41	0.300770	0.168090	0.824910
O421	O42	0.288840	0.852740	0.838000
O431	O43	0.266950	0.894870	0.750150
O441	O44	0.282130	0.119420	0.738910
N111	N11	0.282900	0.022680	0.986270
Mn121	Mn12	0.689600	0.759140	0.176350
C891	C89	0.709100	0.121700	0.206050
C901	C90	0.721050	0.895390	0.195780
C911	C91	0.718900	0.957350	0.166080
C921	C92	0.717090	0.009320	0.199370
H341	H34	0.718800	0.007100	0.240700
C931	C93	0.712780	0.064320	0.172260
C941	C94	0.717900	0.960710	0.105830
H351	H35	0.718400	0.925900	0.083500
C951	C95	0.713100	0.067220	0.110520
H361	H36	0.711200	0.103900	0.091500
C961	C96	0.716200	0.014960	0.077020
O451	O45	0.699230	0.168090	0.175090
O461	O46	0.711160	0.852740	0.162000
O471	O47	0.733050	0.894870	0.249850
O481	O48	0.717870	0.119420	0.261090
N121	N12	0.717100	0.022680	0.013730
Mn131	Mn13	0.810400	0.676350	0.740860
C971	C97	0.790900	0.706050	0.378300
C981	C98	0.778950	0.695780	0.604610
C991	C99	0.781100	0.666080	0.542650
C1001	C100	0.782910	0.699370	0.490680
H371	H37	0.781200	0.740700	0.492900
C1011	C101	0.787220	0.672260	0.435680
C1021	C102	0.782100	0.605830	0.539290
H381	H38	0.781600	0.583500	0.574100
C1031	C103	0.786900	0.610520	0.432780
H391	H39	0.788800	0.591500	0.396100
C1041	C104	0.783800	0.577020	0.485040
O491	O49	0.800770	0.675090	0.331910
O501	O50	0.788840	0.662000	0.647260
O511	O51	0.766950	0.749850	0.605130
O521	O52	0.782130	0.761090	0.380580
N131	N13	0.782900	0.513730	0.477320
Mn141	Mn14	0.189600	0.323650	0.740860
C1051	C105	0.209100	0.293950	0.378300
C1061	C106	0.221050	0.304220	0.604610
C1071	C107	0.218900	0.333920	0.542650
C1081	C108	0.217090	0.300630	0.490680
H401	H40	0.218800	0.259300	0.492900
C1091	C109	0.212780	0.327740	0.435680
C1101	C110	0.217900	0.394170	0.539290
H411	H41	0.218400	0.416500	0.574100
C1111	C111	0.213100	0.389480	0.432780
H421	H42	0.211200	0.408500	0.396100
C1121	C112	0.216200	0.422980	0.485040
O531	O53	0.199230	0.324910	0.331910
O541	O54	0.211160	0.338000	0.647260
O551	O55	0.233050	0.250150	0.605130
O561	O56	0.217870	0.238910	0.380580
N141	N14	0.217100	0.486270	0.477320
Mn151	Mn15	0.810400	0.323650	0.259140
C1131	C113	0.790900	0.293950	0.621700
C1141	C114	0.778950	0.304220	0.395390
C1151	C115	0.781100	0.333920	0.457350
C1161	C116	0.782910	0.300630	0.509320
H431	H43	0.781200	0.259300	0.507100
C1171	C117	0.787220	0.327740	0.564320
C1181	C118	0.782100	0.394170	0.460710
H441	H44	0.781600	0.416500	0.425900
C1191	C119	0.786900	0.389480	0.567220
H451	H45	0.788800	0.408500	0.603900
C1201	C120	0.783800	0.422980	0.514960
O571	O57	0.800770	0.324910	0.668090
O581	O58	0.788840	0.338000	0.352740
O591	O59	0.766950	0.250150	0.394870
O601	O60	0.782130	0.238910	0.619420
N151	N15	0.782900	0.486270	0.522680
Mn161	Mn16	0.189600	0.676350	0.259140
C1211	C121	0.209100	0.706050	0.621700
C1221	C122	0.221050	0.695780	0.395390
C1231	C123	0.218900	0.666080	0.457350
C1241	C124	0.217090	0.699370	0.509320
H461	H46	0.218800	0.740700	0.507100
C1251	C125	0.212780	0.672260	0.564320
C1261	C126	0.217900	0.605830	0.460710
H471	H47	0.218400	0.583500	0.425900
C1271	C127	0.213100	0.610520	0.567220
H481	H48	0.211200	0.591500	0.603900
C1281	C128	0.216200	0.577020	0.514960
O611	O61	0.199230	0.675090	0.668090
O621	O62	0.211160	0.662000	0.352740
O631	O63	0.233050	0.749850	0.394870
O641	O64	0.217870	0.761090	0.619420
N161	N16	0.217100	0.513730	0.522680
Mn171	Mn17	0.676350	0.740860	0.810400
C1291	C129	0.706050	0.378300	0.790900
C1301	C130	0.695780	0.604610	0.778950
C1311	C131	0.666080	0.542650	0.781100
C1321	C132	0.699370	0.490680	0.782910
H491	H49	0.740700	0.492900	0.781200
C1331	C133	0.672260	0.435680	0.787220
C1341	C134	0.605830	0.539290	0.782100
H501	H50	0.583500	0.574100	0.781600
C1351	C135	0.610520	0.432780	0.786900
H511	H51	0.591500	0.396100	0.788800
C1361	C136	0.577020	0.485040	0.783800
O651	O65	0.675090	0.331910	0.800770
O661	O66	0.662000	0.647260	0.788840
O671	O67	0.749850	0.605130	0.766950
O681	O68	0.761090	0.380580	0.782130
N171	N17	0.513730	0.477320	0.782900
Mn181	Mn18	0.323650	0.740860	0.189600
C1371	C137	0.293950	0.378300	0.209100
C1381	C138	0.304220	0.604610	0.221050
C1391	C139	0.333920	0.542650	0.218900
C1401	C140	0.300630	0.490680	0.217090
H521	H52	0.259300	0.492900	0.218800
C1411	C141	0.327740	0.435680	0.212780
C1421	C142	0.394170	0.539290	0.217900
H531	H53	0.416500	0.574100	0.218400
C1431	C143	0.389480	0.432780	0.213100
H541	H54	0.408500	0.396100	0.211200
C1441	C144	0.422980	0.485040	0.216200
O691	O69	0.324910	0.331910	0.199230
O701	O70	0.338000	0.647260	0.211160
O711	O71	0.250150	0.605130	0.233050
O721	O72	0.238910	0.380580	0.217870
N181	N18	0.486270	0.477320	0.217100
Mn191	Mn19	0.323650	0.259140	0.810400
C1451	C145	0.293950	0.621700	0.790900
C1461	C146	0.304220	0.395390	0.778950
C1471	C147	0.333920	0.457350	0.781100
C1481	C148	0.300630	0.509320	0.782910
H551	H55	0.259300	0.507100	0.781200
C1491	C149	0.327740	0.564320	0.787220
C1501	C150	0.394170	0.460710	0.782100
H561	H56	0.416500	0.425900	0.781600
C1511	C151	0.389480	0.567220	0.786900
H571	H57	0.408500	0.603900	0.788800
C1521	C152	0.422980	0.514960	0.783800
O731	O73	0.324910	0.668090	0.800770
O741	O74	0.338000	0.352740	0.788840
O751	O75	0.250150	0.394870	0.766950
O761	O76	0.238910	0.619420	0.782130
N191	N19	0.486270	0.522680	0.782900
Mn201	Mn20	0.676350	0.259140	0.189600
C1531	C153	0.706050	0.621700	0.209100
C1541	C154	0.695780	0.395390	0.221050
C1551	C155	0.666080	0.457350	0.218900
C1561	C156	0.699370	0.509320	0.217090
H581	H58	0.740700	0.507100	0.218800
C1571	C157	0.672260	0.564320	0.212780
C1581	C158	0.605830	0.460710	0.217900
H591	H59	0.583500	0.425900	0.218400
C1591	C159	0.610520	0.567220	0.213100
H601	H60	0.591500	0.603900	0.211200
C1601	C160	0.577020	0.514960	0.216200
O771	O77	0.675090	0.668090	0.199230
O781	O78	0.662000	0.352740	0.211160
O791	O79	0.749850	0.394870	0.233050
O801	O80	0.761090	0.619420	0.217870
N201	N20	0.513730	0.522680	0.217100
Mn211	Mn21	0.740860	0.810400	0.676350
C1611	C161	0.378300	0.790900	0.706050
C1621	C162	0.604610	0.778950	0.695780
C1631	C163	0.542650	0.781100	0.666080
C1641	C164	0.490680	0.782910	0.699370
H611	H61	0.492900	0.781200	0.740700
C1651	C165	0.435680	0.787220	0.672260
C1661	C166	0.539290	0.782100	0.605830
H621	H62	0.574100	0.781600	0.583500
C1671	C167	0.432780	0.786900	0.610520
H631	H63	0.396100	0.788800	0.591500
C1681	C168	0.485040	0.783800	0.577020
O811	O81	0.331910	0.800770	0.675090
O821	O82	0.647260	0.788840	0.662000
O831	O83	0.605130	0.766950	0.749850
O841	O84	0.380580	0.782130	0.761090
N211	N21	0.477320	0.782900	0.513730
Mn221	Mn22	0.740860	0.189600	0.323650
C1691	C169	0.378300	0.209100	0.293950
C1701	C170	0.604610	0.221050	0.304220
C1711	C171	0.542650	0.218900	0.333920
C1721	C172	0.490680	0.217090	0.300630
H641	H64	0.492900	0.218800	0.259300
C1731	C173	0.435680	0.212780	0.327740
C1741	C174	0.539290	0.217900	0.394170
H651	H65	0.574100	0.218400	0.416500
C1751	C175	0.432780	0.213100	0.389480
H661	H66	0.396100	0.211200	0.408500
C1761	C176	0.485040	0.216200	0.422980
O851	O85	0.331910	0.199230	0.324910
O861	O86	0.647260	0.211160	0.338000
O871	O87	0.605130	0.233050	0.250150
O881	O88	0.380580	0.217870	0.238910
N221	N22	0.477320	0.217100	0.486270
Mn231	Mn23	0.259140	0.810400	0.323650
C1771	C177	0.621700	0.790900	0.293950
C1781	C178	0.395390	0.778950	0.304220
C1791	C179	0.457350	0.781100	0.333920
C1801	C180	0.509320	0.782910	0.300630
H671	H67	0.507100	0.781200	0.259300
C1811	C181	0.564320	0.787220	0.327740
C1821	C182	0.460710	0.782100	0.394170
H681	H68	0.425900	0.781600	0.416500
C1831	C183	0.567220	0.786900	0.389480
H691	H69	0.603900	0.788800	0.408500
C1841	C184	0.514960	0.783800	0.422980
O891	O89	0.668090	0.800770	0.324910
O901	O90	0.352740	0.788840	0.338000
O911	O91	0.394870	0.766950	0.250150
O921	O92	0.619420	0.782130	0.238910
N231	N23	0.522680	0.782900	0.486270
Mn241	Mn24	0.259140	0.189600	0.676350
C1851	C185	0.621700	0.209100	0.706050
C1861	C186	0.395390	0.221050	0.695780
C1871	C187	0.457350	0.218900	0.666080
C1881	C188	0.509320	0.217090	0.699370
H701	H70	0.507100	0.218800	0.740700
C1891	C189	0.564320	0.212780	0.672260
C1901	C190	0.460710	0.217900	0.605830
H711	H71	0.425900	0.218400	0.583500
C1911	C191	0.567220	0.213100	0.610520
H721	H72	0.603900	0.211200	0.591500
C1921	C192	0.514960	0.216200	0.577020
O931	O93	0.668090	0.199230	0.675090
O941	O94	0.352740	0.211160	0.662000
O951	O95	0.394870	0.233050	0.749850
O961	O96	0.619420	0.217870	0.761090
N241	N24	0.522680	0.217100	0.513730
O971	O97	0.238170	0.238170	0.238170
O981	O98	0.761830	0.761830	0.238170
O991	O99	0.761830	0.238170	0.761830
O1001	O100	0.238170	0.761830	0.761830
O1011	O101	0.738170	0.738170	0.738170
O1021	O102	0.261830	0.261830	0.738170
O1031	O103	0.738170	0.261830	0.261830
O1041	O104	0.261830	0.738170	0.261830
