data_VALZIU_clean_PM
_symmetry_space_group_name_H-M	'P1'
_cell_length_a	8.336500
_cell_length_b	10.453000
_cell_length_c	19.030000
_cell_angle_alpha	90.000000
_cell_angle_beta	90.000000
_cell_angle_gamma	90.000000
_symmetry_Int_Tables_number 1

loop_
_symmetry_equiv_pos_as_xyz
'x,y,z'

loop_
_atom_site_label
_atom_site_type_symbol
_atom_site_fract_x
_atom_site_fract_y
_atom_site_fract_z
Cu11	Cu1	0.760540	0.105030	0.623380
O11	O1	0.064800	0.376600	0.834880
O21	O2	0.210200	0.527800	0.783310
O31	O3	0.322800	0.497700	0.525300
O41	O4	0.234200	0.322200	0.470570
N11	N1	0.958700	0.217800	0.639280
N21	N2	0.570000	0.994300	0.604300
N31	N3	0.179100	0.755000	0.576400
H11	H1	0.195000	0.676100	0.565700
H21	H2	0.083000	0.783000	0.582200
C11	C1	0.248900	0.396200	0.523900
C21	C2	0.047600	0.256500	0.584000
H31	H3	0.030100	0.218000	0.540600
C31	C3	0.188300	0.408600	0.653600
H41	H4	0.262400	0.474500	0.658200
C41	C4	0.163400	0.350500	0.588900
C51	C5	0.987500	0.272100	0.701300
H51	H5	0.928400	0.245000	0.740000
C61	C6	0.101100	0.367000	0.711200
C71	C7	0.125000	0.426300	0.782800
C81	C8	0.420400	0.037600	0.608600
H61	H6	0.405500	0.124000	0.618300
C91	C9	0.287400	0.963400	0.599900
H71	H7	0.185900	0.999200	0.604500
C101	C10	0.303800	0.834300	0.583900
C111	C11	0.459500	0.790800	0.574700
H81	H8	0.477500	0.706700	0.560800
C121	C12	0.587000	0.870600	0.586000
H91	H9	0.690000	0.837900	0.580800
Cu21	Cu2	0.739460	0.894970	0.123380
O51	O5	0.435200	0.623400	0.334880
O61	O6	0.289800	0.472200	0.283310
O71	O7	0.177200	0.502300	0.025300
O81	O8	0.265800	0.677800	0.970570
N41	N4	0.541300	0.782200	0.139280
N51	N5	0.930000	0.005700	0.104300
N61	N6	0.320900	0.245000	0.076400
H101	H10	0.305000	0.323900	0.065700
H111	H11	0.417000	0.217000	0.082200
C131	C13	0.251100	0.603800	0.023900
C141	C14	0.452400	0.743500	0.084000
H121	H12	0.469900	0.782000	0.040600
C151	C15	0.311700	0.591400	0.153600
H131	H13	0.237600	0.525500	0.158200
C161	C16	0.336600	0.649500	0.088900
C171	C17	0.512500	0.727900	0.201300
H141	H14	0.571600	0.755000	0.240000
C181	C18	0.398900	0.633000	0.211200
C191	C19	0.375000	0.573700	0.282800
C201	C20	0.079600	0.962400	0.108600
H151	H15	0.094500	0.876000	0.118300
C211	C21	0.212600	0.036600	0.099900
H161	H16	0.314100	0.000800	0.104500
C221	C22	0.196200	0.165700	0.083900
C231	C23	0.040500	0.209200	0.074700
H171	H17	0.022500	0.293300	0.060800
C241	C24	0.913000	0.129400	0.086000
H181	H18	0.810000	0.162100	0.080800
Cu31	Cu3	0.239460	0.605030	0.876620
O91	O9	0.935200	0.876600	0.665120
O101	O10	0.789800	0.027800	0.716690
O111	O11	0.677200	0.997700	0.974700
O121	O12	0.765800	0.822200	0.029430
N71	N7	0.041300	0.717800	0.860720
N81	N8	0.430000	0.494300	0.895700
N91	N9	0.820900	0.255000	0.923600
H191	H19	0.805000	0.176100	0.934300
H201	H20	0.917000	0.283000	0.917800
C251	C25	0.751100	0.896200	0.976100
C261	C26	0.952400	0.756500	0.916000
H211	H21	0.969900	0.718000	0.959400
C271	C27	0.811700	0.908600	0.846400
H221	H22	0.737600	0.974500	0.841800
C281	C28	0.836600	0.850500	0.911100
C291	C29	0.012500	0.772100	0.798700
H231	H23	0.071600	0.745000	0.760000
C301	C30	0.898900	0.867000	0.788800
C311	C31	0.875000	0.926300	0.717200
C321	C32	0.579600	0.537600	0.891400
H241	H24	0.594500	0.624000	0.881700
C331	C33	0.712600	0.463400	0.900100
H251	H25	0.814100	0.499200	0.895500
C341	C34	0.696200	0.334300	0.916100
C351	C35	0.540500	0.290800	0.925300
H261	H26	0.522500	0.206700	0.939200
C361	C36	0.413000	0.370600	0.914000
H271	H27	0.310000	0.337900	0.919200
Cu41	Cu4	0.260540	0.394970	0.376620
O131	O13	0.564800	0.123400	0.165120
O141	O14	0.710200	0.972200	0.216690
O151	O15	0.822800	0.002300	0.474700
O161	O16	0.734200	0.177800	0.529430
N101	N10	0.458700	0.282200	0.360720
N111	N11	0.070000	0.505700	0.395700
N121	N12	0.679100	0.745000	0.423600
H281	H28	0.695000	0.823900	0.434300
H291	H29	0.583000	0.717000	0.417800
C371	C37	0.748900	0.103800	0.476100
C381	C38	0.547600	0.243500	0.416000
H301	H30	0.530100	0.282000	0.459400
C391	C39	0.688300	0.091400	0.346400
H311	H31	0.762400	0.025500	0.341800
C401	C40	0.663400	0.149500	0.411100
C411	C41	0.487500	0.227900	0.298700
H321	H32	0.428400	0.255000	0.260000
C421	C42	0.601100	0.133000	0.288800
C431	C43	0.625000	0.073700	0.217200
C441	C44	0.920400	0.462400	0.391400
H331	H33	0.905500	0.376000	0.381700
C451	C45	0.787400	0.536600	0.400100
H341	H34	0.685900	0.500800	0.395500
C461	C46	0.803800	0.665700	0.416100
C471	C47	0.959500	0.709200	0.425300
H351	H35	0.977500	0.793300	0.439200
C481	C48	0.087000	0.629400	0.414000
H361	H36	0.190000	0.662100	0.419200
