data_VAMPUX_clean_PM
_symmetry_space_group_name_H-M	'P1'
_cell_length_a	25.759900
_cell_length_b	25.759900
_cell_length_c	6.876600
_cell_angle_alpha	90.000000
_cell_angle_beta	90.000000
_cell_angle_gamma	120.000000
_symmetry_Int_Tables_number 1

loop_
_symmetry_equiv_pos_as_xyz
'x,y,z'

loop_
_atom_site_label
_atom_site_type_symbol
_atom_site_fract_x
_atom_site_fract_y
_atom_site_fract_z
Co11	Co1	0.314280	0.364120	0.477430
O11	O1	0.029290	0.325390	0.641500
O21	O2	0.252310	0.311080	0.670500
O31	O3	0.072570	0.302390	0.404700
C11	C1	0.071600	0.318300	0.575400
C21	C2	0.119700	0.327000	0.713400
C31	C3	0.164900	0.318100	0.643100
H11	H1	0.163600	0.307900	0.509700
C41	C4	0.211500	0.322900	0.754000
Co21	Co2	0.980950	0.697450	0.810760
O41	O4	0.695960	0.658720	0.974830
O51	O5	0.918980	0.644410	0.003830
O61	O6	0.739240	0.635720	0.738030
C51	C5	0.738270	0.651630	0.908730
C61	C6	0.786370	0.660330	0.046730
C71	C7	0.831570	0.651430	0.976430
H21	H2	0.830270	0.641230	0.843030
C81	C8	0.878170	0.656230	0.087330
Co31	Co3	0.647610	0.030790	0.144100
O71	O7	0.362620	0.992060	0.308170
O81	O8	0.585640	0.977750	0.337170
O91	O9	0.405900	0.969060	0.071370
C91	C9	0.404930	0.984970	0.242070
C101	C10	0.453030	0.993670	0.380070
C111	C11	0.498230	0.984770	0.309770
H31	H3	0.496930	0.974570	0.176370
C121	C12	0.544830	0.989570	0.420670
Co41	Co4	0.635880	0.950160	0.477430
O101	O10	0.674610	0.703900	0.641500
O111	O11	0.688920	0.941230	0.670500
O121	O12	0.697610	0.770180	0.404700
C131	C13	0.681700	0.753300	0.575400
C141	C14	0.673000	0.792700	0.713400
C151	C15	0.681900	0.846800	0.643100
H41	H4	0.692100	0.855700	0.509700
C161	C16	0.677100	0.888600	0.754000
Co51	Co5	0.302550	0.283490	0.810760
O131	O13	0.341280	0.037230	0.974830
O141	O14	0.355590	0.274560	0.003830
O151	O15	0.364280	0.103510	0.738030
C171	C17	0.348370	0.086630	0.908730
C181	C18	0.339670	0.126030	0.046730
C191	C19	0.348570	0.180130	0.976430
H51	H5	0.358770	0.189030	0.843030
C201	C20	0.343770	0.221930	0.087330
Co61	Co6	0.969210	0.616830	0.144100
O161	O16	0.007940	0.370570	0.308170
O171	O17	0.022250	0.607900	0.337170
O181	O18	0.030940	0.436850	0.071370
C211	C21	0.015030	0.419970	0.242070
C221	C22	0.006330	0.459370	0.380070
C231	C23	0.015230	0.513470	0.309770
H61	H6	0.025430	0.522370	0.176370
C241	C24	0.010430	0.555270	0.420670
Co71	Co7	0.049840	0.685720	0.477430
O191	O19	0.296100	0.970710	0.641500
O201	O20	0.058770	0.747690	0.670500
O211	O21	0.229820	0.927430	0.404700
C251	C25	0.246700	0.928400	0.575400
C261	C26	0.207300	0.880300	0.713400
C271	C27	0.153200	0.835100	0.643100
H71	H7	0.144300	0.836400	0.509700
C281	C28	0.111400	0.788500	0.754000
Co81	Co8	0.716510	0.019050	0.810760
O221	O22	0.962770	0.304040	0.974830
O231	O23	0.725440	0.081020	0.003830
O241	O24	0.896490	0.260760	0.738030
C291	C29	0.913370	0.261730	0.908730
C301	C30	0.873970	0.213630	0.046730
C311	C31	0.819870	0.168430	0.976430
H81	H8	0.810970	0.169730	0.843030
C321	C32	0.778070	0.121830	0.087330
Co91	Co9	0.383170	0.352390	0.144100
O251	O25	0.629430	0.637380	0.308170
O261	O26	0.392100	0.414360	0.337170
O271	O27	0.563150	0.594100	0.071370
C331	C33	0.580030	0.595070	0.242070
C341	C34	0.540630	0.546970	0.380070
C351	C35	0.486530	0.501770	0.309770
H91	H9	0.477630	0.503070	0.176370
C361	C36	0.444730	0.455170	0.420670
Co101	Co10	0.685720	0.635880	0.522570
O281	O28	0.970710	0.674610	0.358500
O291	O29	0.747690	0.688920	0.329500
O301	O30	0.927430	0.697610	0.595300
C371	C37	0.928400	0.681700	0.424600
C381	C38	0.880300	0.673000	0.286600
C391	C39	0.835100	0.681900	0.356900
H101	H10	0.836400	0.692100	0.490300
C401	C40	0.788500	0.677100	0.246000
Co111	Co11	0.352390	0.969210	0.855900
O311	O31	0.637380	0.007940	0.691830
O321	O32	0.414360	0.022250	0.662830
O331	O33	0.594100	0.030940	0.928630
C411	C41	0.595070	0.015030	0.757930
C421	C42	0.546970	0.006330	0.619930
C431	C43	0.501770	0.015230	0.690230
H111	H11	0.503070	0.025430	0.823630
C441	C44	0.455170	0.010430	0.579330
Co121	Co12	0.019050	0.302550	0.189240
O341	O34	0.304040	0.341280	0.025170
O351	O35	0.081020	0.355590	0.996170
O361	O36	0.260760	0.364280	0.261970
C451	C45	0.261730	0.348370	0.091270
C461	C46	0.213630	0.339670	0.953270
C471	C47	0.168430	0.348570	0.023570
H121	H12	0.169730	0.358770	0.156970
C481	C48	0.121830	0.343770	0.912670
Co131	Co13	0.364120	0.049840	0.522570
O371	O37	0.325390	0.296100	0.358500
O381	O38	0.311080	0.058770	0.329500
O391	O39	0.302390	0.229820	0.595300
C491	C49	0.318300	0.246700	0.424600
C501	C50	0.327000	0.207300	0.286600
C511	C51	0.318100	0.153200	0.356900
H131	H13	0.307900	0.144300	0.490300
C521	C52	0.322900	0.111400	0.246000
Co141	Co14	0.030790	0.383170	0.855900
O401	O40	0.992060	0.629430	0.691830
O411	O41	0.977750	0.392100	0.662830
O421	O42	0.969060	0.563150	0.928630
C531	C53	0.984970	0.580030	0.757930
C541	C54	0.993670	0.540630	0.619930
C551	C55	0.984770	0.486530	0.690230
H141	H14	0.974570	0.477630	0.823630
C561	C56	0.989570	0.444730	0.579330
Co151	Co15	0.697450	0.716510	0.189240
O431	O43	0.658720	0.962770	0.025170
O441	O44	0.644410	0.725440	0.996170
O451	O45	0.635720	0.896490	0.261970
C571	C57	0.651630	0.913370	0.091270
C581	C58	0.660330	0.873970	0.953270
C591	C59	0.651430	0.819870	0.023570
H151	H15	0.641230	0.810970	0.156970
C601	C60	0.656230	0.778070	0.912670
Co161	Co16	0.950160	0.314280	0.522570
O461	O46	0.703900	0.029290	0.358500
O471	O47	0.941230	0.252310	0.329500
O481	O48	0.770180	0.072570	0.595300
C611	C61	0.753300	0.071600	0.424600
C621	C62	0.792700	0.119700	0.286600
C631	C63	0.846800	0.164900	0.356900
H161	H16	0.855700	0.163600	0.490300
C641	C64	0.888600	0.211500	0.246000
Co171	Co17	0.616830	0.647610	0.855900
O491	O49	0.370570	0.362620	0.691830
O501	O50	0.607900	0.585640	0.662830
O511	O51	0.436850	0.405900	0.928630
C651	C65	0.419970	0.404930	0.757930
C661	C66	0.459370	0.453030	0.619930
C671	C67	0.513470	0.498230	0.690230
H171	H17	0.522370	0.496930	0.823630
C681	C68	0.555270	0.544830	0.579330
Co181	Co18	0.283490	0.980950	0.189240
O521	O52	0.037230	0.695960	0.025170
O531	O53	0.274560	0.918980	0.996170
O541	O54	0.103510	0.739240	0.261970
C691	C69	0.086630	0.738270	0.091270
C701	C70	0.126030	0.786370	0.953270
C711	C71	0.180130	0.831570	0.023570
H181	H18	0.189030	0.830270	0.156970
C721	C72	0.221930	0.878170	0.912670
