data_VAMQAE_clean_PM
_symmetry_space_group_name_H-M	'P1'
_cell_length_a	25.810000
_cell_length_b	25.810000
_cell_length_c	6.901000
_cell_angle_alpha	90.000000
_cell_angle_beta	90.000000
_cell_angle_gamma	120.000000
_symmetry_Int_Tables_number 1

loop_
_symmetry_equiv_pos_as_xyz
'x,y,z'

loop_
_atom_site_label
_atom_site_type_symbol
_atom_site_fract_x
_atom_site_fract_y
_atom_site_fract_z
Co11	Co1	0.685930	0.050530	0.021400
O11	O1	0.607820	0.022850	0.162700
O21	O2	0.629550	0.992380	0.807900
O31	O3	0.563560	0.970270	0.571400
N11	N1	0.688900	0.133900	0.915800
N21	N2	0.694900	0.177500	0.886600
C11	C1	0.555800	0.010800	0.077600
C21	C2	0.541300	0.995200	0.880000
C31	C3	0.486700	0.985200	0.808400
H11	H1	0.477900	0.975200	0.675400
C41	C4	0.580400	0.985800	0.743700
Co21	Co2	0.352600	0.383860	0.354730
O41	O4	0.274490	0.356180	0.496030
O51	O5	0.296220	0.325710	0.141230
O61	O6	0.230230	0.303600	0.904730
N31	N3	0.355570	0.467230	0.249130
N41	N4	0.361570	0.510830	0.219930
C51	C5	0.222470	0.344130	0.410930
C61	C6	0.207970	0.328530	0.213330
C71	C7	0.153370	0.318530	0.141730
H21	H2	0.144570	0.308530	0.008730
C81	C8	0.247070	0.319130	0.077030
Co31	Co3	0.019260	0.717200	0.688070
O71	O7	0.941150	0.689520	0.829370
O81	O8	0.962880	0.659050	0.474570
O91	O9	0.896890	0.636940	0.238070
N51	N5	0.022230	0.800570	0.582470
N61	N6	0.028230	0.844170	0.553270
C91	C9	0.889130	0.677470	0.744270
C101	C10	0.874630	0.661870	0.546670
C111	C11	0.820030	0.651870	0.475070
H31	H3	0.811230	0.641870	0.342070
C121	C12	0.913730	0.652470	0.410370
Co41	Co4	0.949470	0.635400	0.021400
O101	O10	0.977150	0.584970	0.162700
O111	O11	0.007620	0.637170	0.807900
O121	O12	0.029730	0.593290	0.571400
N71	N7	0.866100	0.555000	0.915800
N81	N8	0.822500	0.517400	0.886600
C131	C13	0.989200	0.545000	0.077600
C141	C14	0.004800	0.546100	0.880000
C151	C15	0.014800	0.501500	0.808400
H41	H4	0.024800	0.502700	0.675400
C161	C16	0.014200	0.594600	0.743700
Co51	Co5	0.616140	0.968730	0.354730
O131	O13	0.643820	0.918300	0.496030
O141	O14	0.674290	0.970500	0.141230
O151	O15	0.696400	0.926620	0.904730
N91	N9	0.532770	0.888330	0.249130
N101	N10	0.489170	0.850730	0.219930
C171	C17	0.655870	0.878330	0.410930
C181	C18	0.671470	0.879430	0.213330
C191	C19	0.681470	0.834830	0.141730
H51	H5	0.691470	0.836030	0.008730
C201	C20	0.680870	0.927930	0.077030
Co61	Co6	0.282800	0.302070	0.688070
O161	O16	0.310480	0.251640	0.829370
O171	O17	0.340950	0.303840	0.474570
O181	O18	0.363060	0.259960	0.238070
N111	N11	0.199430	0.221670	0.582470
N121	N12	0.155830	0.184070	0.553270
C211	C21	0.322530	0.211670	0.744270
C221	C22	0.338130	0.212770	0.546670
C231	C23	0.348130	0.168170	0.475070
H61	H6	0.358130	0.169370	0.342070
C241	C24	0.347530	0.261270	0.410370
Co71	Co7	0.364600	0.314070	0.021400
O191	O19	0.415030	0.392180	0.162700
O201	O20	0.362830	0.370450	0.807900
O211	O21	0.406710	0.436440	0.571400
N131	N13	0.445000	0.311100	0.915800
N141	N14	0.482600	0.305100	0.886600
C251	C25	0.455000	0.444200	0.077600
C261	C26	0.453900	0.458700	0.880000
C271	C27	0.498500	0.513300	0.808400
H71	H7	0.497300	0.522100	0.675400
C281	C28	0.405400	0.419600	0.743700
Co81	Co8	0.031270	0.647400	0.354730
O221	O22	0.081700	0.725510	0.496030
O231	O23	0.029500	0.703780	0.141230
O241	O24	0.073380	0.769770	0.904730
N151	N15	0.111670	0.644430	0.249130
N161	N16	0.149270	0.638430	0.219930
C291	C29	0.121670	0.777530	0.410930
C301	C30	0.120570	0.792030	0.213330
C311	C31	0.165170	0.846630	0.141730
H81	H8	0.163970	0.855430	0.008730
C321	C32	0.072070	0.752930	0.077030
Co91	Co9	0.697930	0.980740	0.688070
O251	O25	0.748360	0.058850	0.829370
O261	O26	0.696160	0.037120	0.474570
O271	O27	0.740040	0.103110	0.238070
N171	N17	0.778330	0.977770	0.582470
N181	N18	0.815930	0.971770	0.553270
C331	C33	0.788330	0.110870	0.744270
C341	C34	0.787230	0.125370	0.546670
C351	C35	0.831830	0.179970	0.475070
H91	H9	0.830630	0.188770	0.342070
C361	C36	0.738730	0.086270	0.410370
Co101	Co10	0.314070	0.949470	0.978600
O281	O28	0.392180	0.977150	0.837300
O291	O29	0.370450	0.007620	0.192100
O301	O30	0.436440	0.029730	0.428600
N191	N19	0.311100	0.866100	0.084200
N201	N20	0.305100	0.822500	0.113400
C371	C37	0.444200	0.989200	0.922400
C381	C38	0.458700	0.004800	0.120000
C391	C39	0.513300	0.014800	0.191600
H101	H10	0.522100	0.024800	0.324600
C401	C40	0.419600	0.014200	0.256300
Co111	Co11	0.980740	0.282800	0.311930
O311	O31	0.058850	0.310480	0.170630
O321	O32	0.037120	0.340950	0.525430
O331	O33	0.103110	0.363060	0.761930
N211	N21	0.977770	0.199430	0.417530
N221	N22	0.971770	0.155830	0.446730
C411	C41	0.110870	0.322530	0.255730
C421	C42	0.125370	0.338130	0.453330
C431	C43	0.179970	0.348130	0.524930
H111	H11	0.188770	0.358130	0.657930
C441	C44	0.086270	0.347530	0.589630
Co121	Co12	0.647400	0.616140	0.645270
O341	O34	0.725510	0.643820	0.503970
O351	O35	0.703780	0.674290	0.858770
O361	O36	0.769770	0.696400	0.095270
N231	N23	0.644430	0.532770	0.750870
N241	N24	0.638430	0.489170	0.780070
C451	C45	0.777530	0.655870	0.589070
C461	C46	0.792030	0.671470	0.786670
C471	C47	0.846630	0.681470	0.858270
H121	H12	0.855430	0.691470	0.991270
C481	C48	0.752930	0.680870	0.922970
Co131	Co13	0.050530	0.364600	0.978600
O371	O37	0.022850	0.415030	0.837300
O381	O38	0.992380	0.362830	0.192100
O391	O39	0.970270	0.406710	0.428600
N251	N25	0.133900	0.445000	0.084200
N261	N26	0.177500	0.482600	0.113400
C491	C49	0.010800	0.455000	0.922400
C501	C50	0.995200	0.453900	0.120000
C511	C51	0.985200	0.498500	0.191600
H131	H13	0.975200	0.497300	0.324600
C521	C52	0.985800	0.405400	0.256300
Co141	Co14	0.717200	0.697930	0.311930
O401	O40	0.689520	0.748360	0.170630
O411	O41	0.659050	0.696160	0.525430
O421	O42	0.636940	0.740040	0.761930
N271	N27	0.800570	0.778330	0.417530
N281	N28	0.844170	0.815930	0.446730
C531	C53	0.677470	0.788330	0.255730
C541	C54	0.661870	0.787230	0.453330
C551	C55	0.651870	0.831830	0.524930
H141	H14	0.641870	0.830630	0.657930
C561	C56	0.652470	0.738730	0.589630
Co151	Co15	0.383860	0.031270	0.645270
O431	O43	0.356180	0.081700	0.503970
O441	O44	0.325710	0.029500	0.858770
O451	O45	0.303600	0.073380	0.095270
N291	N29	0.467230	0.111670	0.750870
N301	N30	0.510830	0.149270	0.780070
C571	C57	0.344130	0.121670	0.589070
C581	C58	0.328530	0.120570	0.786670
C591	C59	0.318530	0.165170	0.858270
H151	H15	0.308530	0.163970	0.991270
C601	C60	0.319130	0.072070	0.922970
Co161	Co16	0.635400	0.685930	0.978600
O461	O46	0.584970	0.607820	0.837300
O471	O47	0.637170	0.629550	0.192100
O481	O48	0.593290	0.563560	0.428600
N311	N31	0.555000	0.688900	0.084200
N321	N32	0.517400	0.694900	0.113400
C611	C61	0.545000	0.555800	0.922400
C621	C62	0.546100	0.541300	0.120000
C631	C63	0.501500	0.486700	0.191600
H161	H16	0.502700	0.477900	0.324600
C641	C64	0.594600	0.580400	0.256300
Co171	Co17	0.302070	0.019260	0.311930
O491	O49	0.251640	0.941150	0.170630
O501	O50	0.303840	0.962880	0.525430
O511	O51	0.259960	0.896890	0.761930
N331	N33	0.221670	0.022230	0.417530
N341	N34	0.184070	0.028230	0.446730
C651	C65	0.211670	0.889130	0.255730
C661	C66	0.212770	0.874630	0.453330
C671	C67	0.168170	0.820030	0.524930
H171	H17	0.169370	0.811230	0.657930
C681	C68	0.261270	0.913730	0.589630
Co181	Co18	0.968730	0.352600	0.645270
O521	O52	0.918300	0.274490	0.503970
O531	O53	0.970500	0.296220	0.858770
O541	O54	0.926620	0.230230	0.095270
N351	N35	0.888330	0.355570	0.750870
N361	N36	0.850730	0.361570	0.780070
C691	C69	0.878330	0.222470	0.589070
C701	C70	0.879430	0.207970	0.786670
C711	C71	0.834830	0.153370	0.858270
H181	H18	0.836030	0.144570	0.991270
C721	C72	0.927930	0.247070	0.922970
