data_VAMQIM_clean_PM
_symmetry_space_group_name_H-M	'P1'
_cell_length_a	25.860000
_cell_length_b	25.860000
_cell_length_c	6.867800
_cell_angle_alpha	90.000000
_cell_angle_beta	90.000000
_cell_angle_gamma	120.000000
_symmetry_Int_Tables_number 1

loop_
_symmetry_equiv_pos_as_xyz
'x,y,z'

loop_
_atom_site_label
_atom_site_type_symbol
_atom_site_fract_x
_atom_site_fract_y
_atom_site_fract_z
Co11	Co1	0.362950	0.049000	0.523380
O11	O1	0.311200	0.058980	0.327800
O21	O2	0.339710	0.037250	0.970700
O31	O3	0.364990	0.103940	0.735000
C11	C1	0.322740	0.110990	0.243700
C21	C2	0.339270	0.126070	0.046100
C31	C3	0.349480	0.181150	0.973900
H11	H1	0.360600	0.190700	0.841200
C41	C4	0.348290	0.086810	0.907100
Co21	Co2	0.029620	0.382330	0.856710
O41	O4	0.977870	0.392310	0.661130
O51	O5	0.006380	0.370580	0.304030
O61	O6	0.031660	0.437270	0.068330
C51	C5	0.989410	0.444320	0.577030
C61	C6	0.005940	0.459400	0.379430
C71	C7	0.016150	0.514480	0.307230
H21	H2	0.027270	0.524030	0.174530
C81	C8	0.014960	0.420140	0.240430
Co31	Co3	0.696280	0.715670	0.190050
O71	O7	0.644530	0.725650	0.994470
O81	O8	0.673040	0.703920	0.637370
O91	O9	0.698320	0.770610	0.401670
C91	C9	0.656070	0.777660	0.910370
C101	C10	0.672600	0.792740	0.712770
C111	C11	0.682810	0.847820	0.640570
H31	H3	0.693930	0.857370	0.507870
C121	C12	0.681620	0.753480	0.573770
Co41	Co4	0.951000	0.313950	0.523380
O101	O10	0.941020	0.252220	0.327800
O111	O11	0.962750	0.302460	0.970700
O121	O12	0.896060	0.261050	0.735000
C131	C13	0.889010	0.211750	0.243700
C141	C14	0.873930	0.213200	0.046100
C151	C15	0.818850	0.168330	0.973900
H41	H4	0.809300	0.169900	0.841200
C161	C16	0.913190	0.261480	0.907100
Co51	Co5	0.617670	0.647280	0.856710
O131	O13	0.607690	0.585550	0.661130
O141	O14	0.629420	0.635790	0.304030
O151	O15	0.562730	0.594380	0.068330
C171	C17	0.555680	0.545080	0.577030
C181	C18	0.540600	0.546530	0.379430
C191	C19	0.485520	0.501660	0.307230
H51	H5	0.475970	0.503230	0.174530
C201	C20	0.579860	0.594810	0.240430
Co61	Co6	0.284330	0.980620	0.190050
O161	O16	0.274350	0.918890	0.994470
O171	O17	0.296080	0.969130	0.637370
O181	O18	0.229390	0.927720	0.401670
C211	C21	0.222340	0.878420	0.910370
C221	C22	0.207260	0.879870	0.712770
C231	C23	0.152180	0.835000	0.640570
H61	H6	0.142630	0.836570	0.507870
C241	C24	0.246520	0.928150	0.573770
Co71	Co7	0.686050	0.637050	0.523380
O191	O19	0.747780	0.688800	0.327800
O201	O20	0.697540	0.660290	0.970700
O211	O21	0.738950	0.635010	0.735000
C251	C25	0.788250	0.677260	0.243700
C261	C26	0.786800	0.660730	0.046100
C271	C27	0.831670	0.650520	0.973900
H71	H7	0.830100	0.639400	0.841200
C281	C28	0.738520	0.651710	0.907100
Co81	Co8	0.352720	0.970380	0.856710
O221	O22	0.414450	0.022130	0.661130
O231	O23	0.364210	0.993620	0.304030
O241	O24	0.405620	0.968340	0.068330
C291	C29	0.454920	0.010590	0.577030
C301	C30	0.453470	0.994060	0.379430
C311	C31	0.498340	0.983850	0.307230
H81	H8	0.496770	0.972730	0.174530
C321	C32	0.405190	0.985040	0.240430
Co91	Co9	0.019380	0.303720	0.190050
O251	O25	0.081110	0.355470	0.994470
O261	O26	0.030870	0.326960	0.637370
O271	O27	0.072280	0.301680	0.401670
C331	C33	0.121580	0.343930	0.910370
C341	C34	0.120130	0.327400	0.712770
C351	C35	0.165000	0.317190	0.640570
H91	H9	0.163430	0.306070	0.507870
C361	C36	0.071850	0.318380	0.573770
Co101	Co10	0.637050	0.951000	0.476620
O281	O28	0.688800	0.941020	0.672200
O291	O29	0.660290	0.962750	0.029300
O301	O30	0.635010	0.896060	0.265000
C371	C37	0.677260	0.889010	0.756300
C381	C38	0.660730	0.873930	0.953900
C391	C39	0.650520	0.818850	0.026100
H101	H10	0.639400	0.809300	0.158800
C401	C40	0.651710	0.913190	0.092900
Co111	Co11	0.303720	0.284330	0.809950
O311	O31	0.355470	0.274350	0.005530
O321	O32	0.326960	0.296080	0.362630
O331	O33	0.301680	0.229390	0.598330
C411	C41	0.343930	0.222340	0.089630
C421	C42	0.327400	0.207260	0.287230
C431	C43	0.317190	0.152180	0.359430
H111	H11	0.306070	0.142630	0.492130
C441	C44	0.318380	0.246520	0.426230
Co121	Co12	0.970380	0.617670	0.143290
O341	O34	0.022130	0.607690	0.338870
O351	O35	0.993620	0.629420	0.695970
O361	O36	0.968340	0.562730	0.931670
C451	C45	0.010590	0.555680	0.422970
C461	C46	0.994060	0.540600	0.620570
C471	C47	0.983850	0.485520	0.692770
H121	H12	0.972730	0.475970	0.825470
C481	C48	0.985040	0.579860	0.759570
Co131	Co13	0.049000	0.686050	0.476620
O371	O37	0.058980	0.747780	0.672200
O381	O38	0.037250	0.697540	0.029300
O391	O39	0.103940	0.738950	0.265000
C491	C49	0.110990	0.788250	0.756300
C501	C50	0.126070	0.786800	0.953900
C511	C51	0.181150	0.831670	0.026100
H131	H13	0.190700	0.830100	0.158800
C521	C52	0.086810	0.738520	0.092900
Co141	Co14	0.715670	0.019380	0.809950
O401	O40	0.725650	0.081110	0.005530
O411	O41	0.703920	0.030870	0.362630
O421	O42	0.770610	0.072280	0.598330
C531	C53	0.777660	0.121580	0.089630
C541	C54	0.792740	0.120130	0.287230
C551	C55	0.847820	0.165000	0.359430
H141	H14	0.857370	0.163430	0.492130
C561	C56	0.753480	0.071850	0.426230
Co151	Co15	0.382330	0.352720	0.143290
O431	O43	0.392310	0.414450	0.338870
O441	O44	0.370580	0.364210	0.695970
O451	O45	0.437270	0.405620	0.931670
C571	C57	0.444320	0.454920	0.422970
C581	C58	0.459400	0.453470	0.620570
C591	C59	0.514480	0.498340	0.692770
H151	H15	0.524030	0.496770	0.825470
C601	C60	0.420140	0.405190	0.759570
Co161	Co16	0.313950	0.362950	0.476620
O461	O46	0.252220	0.311200	0.672200
O471	O47	0.302460	0.339710	0.029300
O481	O48	0.261050	0.364990	0.265000
C611	C61	0.211750	0.322740	0.756300
C621	C62	0.213200	0.339270	0.953900
C631	C63	0.168330	0.349480	0.026100
H161	H16	0.169900	0.360600	0.158800
C641	C64	0.261480	0.348290	0.092900
Co171	Co17	0.980620	0.696280	0.809950
O491	O49	0.918890	0.644530	0.005530
O501	O50	0.969130	0.673040	0.362630
O511	O51	0.927720	0.698320	0.598330
C651	C65	0.878420	0.656070	0.089630
C661	C66	0.879870	0.672600	0.287230
C671	C67	0.835000	0.682810	0.359430
H171	H17	0.836570	0.693930	0.492130
C681	C68	0.928150	0.681620	0.426230
Co181	Co18	0.647280	0.029620	0.143290
O521	O52	0.585550	0.977870	0.338870
O531	O53	0.635790	0.006380	0.695970
O541	O54	0.594380	0.031660	0.931670
C691	C69	0.545080	0.989410	0.422970
C701	C70	0.546530	0.005940	0.620570
C711	C71	0.501660	0.016150	0.692770
H181	H18	0.503230	0.027270	0.825470
C721	C72	0.594810	0.014960	0.759570
