data_VANHEA_clean_PM
_symmetry_space_group_name_H-M	'P1'
_cell_length_a	30.057000
_cell_length_b	16.187000
_cell_length_c	21.894000
_cell_angle_alpha	90.000000
_cell_angle_beta	114.478000
_cell_angle_gamma	90.000000
_symmetry_Int_Tables_number 1

loop_
_symmetry_equiv_pos_as_xyz
'x,y,z'

loop_
_atom_site_label
_atom_site_type_symbol
_atom_site_fract_x
_atom_site_fract_y
_atom_site_fract_z
Zn11	Zn1	0.701580	0.548520	0.474370
O11	O1	0.851200	0.092500	0.002730
O21	O2	0.806270	0.198800	0.983500
O31	O3	0.181560	0.076300	0.378630
O41	O4	0.238740	0.170350	0.419530
O51	O5	0.766530	0.536680	0.546440
O61	O6	0.796960	0.666050	0.561580
N11	N1	0.997090	0.364240	0.978090
C11	C1	0.844630	0.167500	0.991020
C21	C2	0.883680	0.218790	0.984880
C31	C3	0.926910	0.183490	0.990480
H11	H1	0.931100	0.126700	0.996300
C41	C4	0.963900	0.231010	0.987560
H21	H2	0.992800	0.206200	0.991300
C51	C5	0.958270	0.315540	0.979100
C61	C6	0.914950	0.351750	0.972850
H31	H3	0.910800	0.408600	0.967000
C71	C7	0.877860	0.303660	0.975220
H41	H4	0.848600	0.328300	0.970300
C81	C8	0.046190	0.360070	0.024010
C91	C9	0.066950	0.314790	0.083540
H51	H5	0.047600	0.281800	0.097600
C101	C10	0.116950	0.320040	0.121130
C111	C11	0.145360	0.372670	0.099910
H61	H6	0.178900	0.376300	0.125600
C121	C12	0.124240	0.418860	0.041700
H71	H7	0.143400	0.453500	0.028500
C131	C13	0.074210	0.413010	0.003060
C141	C14	0.040830	0.451310	0.941460
C151	C15	0.046610	0.507950	0.897240
H81	H8	0.077200	0.529800	0.905700
C161	C16	0.005960	0.531070	0.840670
H91	H9	0.009500	0.569900	0.811700
C171	C17	0.959590	0.497670	0.825650
C181	C18	0.953180	0.442270	0.869700
H101	H10	0.922500	0.420500	0.861000
C191	C19	0.993810	0.420240	0.927190
C201	C20	0.140300	0.271330	0.184490
C211	C21	0.119410	0.198570	0.193530
H111	H11	0.091200	0.178600	0.158900
C221	C22	0.139930	0.155180	0.253310
H121	H12	0.125300	0.106600	0.258500
C231	C23	0.182380	0.183910	0.305850
C241	C24	0.203400	0.254100	0.296800
H131	H13	0.231900	0.273200	0.331400
C251	C25	0.183310	0.298290	0.236870
H141	H14	0.198700	0.346000	0.231700
C261	C26	0.201990	0.140900	0.372430
C271	C27	0.917700	0.520770	0.761600
C281	C28	0.914670	0.600150	0.735440
H151	H15	0.938600	0.639000	0.758500
C291	C29	0.876280	0.621790	0.675250
H161	H16	0.874700	0.674900	0.658300
C301	C30	0.840390	0.565080	0.640300
C311	C31	0.843280	0.485870	0.665110
H171	H17	0.819400	0.447200	0.641600
C321	C32	0.881960	0.463800	0.725420
H181	H18	0.883800	0.410200	0.741600
C331	C33	0.797570	0.591880	0.577690
Zn21	Zn2	0.201580	0.048520	0.474370
O71	O7	0.351200	0.592500	0.002730
O81	O8	0.306270	0.698800	0.983500
O91	O9	0.681560	0.576300	0.378630
O101	O10	0.738740	0.670350	0.419530
O111	O11	0.266530	0.036680	0.546440
O121	O12	0.296960	0.166050	0.561580
N21	N2	0.497090	0.864240	0.978090
C341	C34	0.344630	0.667500	0.991020
C351	C35	0.383680	0.718790	0.984880
C361	C36	0.426910	0.683490	0.990480
H191	H19	0.431100	0.626700	0.996300
C371	C37	0.463900	0.731010	0.987560
H201	H20	0.492800	0.706200	0.991300
C381	C38	0.458270	0.815540	0.979100
C391	C39	0.414950	0.851750	0.972850
H211	H21	0.410800	0.908600	0.967000
C401	C40	0.377860	0.803660	0.975220
H221	H22	0.348600	0.828300	0.970300
C411	C41	0.546190	0.860070	0.024010
C421	C42	0.566950	0.814790	0.083540
H231	H23	0.547600	0.781800	0.097600
C431	C43	0.616950	0.820040	0.121130
C441	C44	0.645360	0.872670	0.099910
H241	H24	0.678900	0.876300	0.125600
C451	C45	0.624240	0.918860	0.041700
H251	H25	0.643400	0.953500	0.028500
C461	C46	0.574210	0.913010	0.003060
C471	C47	0.540830	0.951310	0.941460
C481	C48	0.546610	0.007950	0.897240
H261	H26	0.577200	0.029800	0.905700
C491	C49	0.505960	0.031070	0.840670
H271	H27	0.509500	0.069900	0.811700
C501	C50	0.459590	0.997670	0.825650
C511	C51	0.453180	0.942270	0.869700
H281	H28	0.422500	0.920500	0.861000
C521	C52	0.493810	0.920240	0.927190
C531	C53	0.640300	0.771330	0.184490
C541	C54	0.619410	0.698570	0.193530
H291	H29	0.591200	0.678600	0.158900
C551	C55	0.639930	0.655180	0.253310
H301	H30	0.625300	0.606600	0.258500
C561	C56	0.682380	0.683910	0.305850
C571	C57	0.703400	0.754100	0.296800
H311	H31	0.731900	0.773200	0.331400
C581	C58	0.683310	0.798290	0.236870
H321	H32	0.698700	0.846000	0.231700
C591	C59	0.701990	0.640900	0.372430
C601	C60	0.417700	0.020770	0.761600
C611	C61	0.414670	0.100150	0.735440
H331	H33	0.438600	0.139000	0.758500
C621	C62	0.376280	0.121790	0.675250
H341	H34	0.374700	0.174900	0.658300
C631	C63	0.340390	0.065080	0.640300
C641	C64	0.343280	0.985870	0.665110
H351	H35	0.319400	0.947200	0.641600
C651	C65	0.381960	0.963800	0.725420
H361	H36	0.383800	0.910200	0.741600
C661	C66	0.297570	0.091880	0.577690
Zn31	Zn3	0.298420	0.548520	0.025630
O131	O13	0.148800	0.092500	0.497270
O141	O14	0.193730	0.198800	0.516500
O151	O15	0.818440	0.076300	0.121370
O161	O16	0.761260	0.170350	0.080470
O171	O17	0.233470	0.536680	0.953560
O181	O18	0.203040	0.666050	0.938420
N31	N3	0.002910	0.364240	0.521910
C671	C67	0.155370	0.167500	0.508980
C681	C68	0.116320	0.218790	0.515120
C691	C69	0.073090	0.183490	0.509520
H371	H37	0.068900	0.126700	0.503700
C701	C70	0.036100	0.231010	0.512440
H381	H38	0.007200	0.206200	0.508700
C711	C71	0.041730	0.315540	0.520900
C721	C72	0.085050	0.351750	0.527150
H391	H39	0.089200	0.408600	0.533000
C731	C73	0.122140	0.303660	0.524780
H401	H40	0.151400	0.328300	0.529700
C741	C74	0.953810	0.360070	0.475990
C751	C75	0.933050	0.314790	0.416460
H411	H41	0.952400	0.281800	0.402400
C761	C76	0.883050	0.320040	0.378870
C771	C77	0.854640	0.372670	0.400090
H421	H42	0.821100	0.376300	0.374400
C781	C78	0.875760	0.418860	0.458300
H431	H43	0.856600	0.453500	0.471500
C791	C79	0.925790	0.413010	0.496940
C801	C80	0.959170	0.451310	0.558540
C811	C81	0.953390	0.507950	0.602760
H441	H44	0.922800	0.529800	0.594300
C821	C82	0.994040	0.531070	0.659330
H451	H45	0.990500	0.569900	0.688300
C831	C83	0.040410	0.497670	0.674350
C841	C84	0.046820	0.442270	0.630300
H461	H46	0.077500	0.420500	0.639000
C851	C85	0.006190	0.420240	0.572810
C861	C86	0.859700	0.271330	0.315510
C871	C87	0.880590	0.198570	0.306470
H471	H47	0.908800	0.178600	0.341100
C881	C88	0.860070	0.155180	0.246690
H481	H48	0.874700	0.106600	0.241500
C891	C89	0.817620	0.183910	0.194150
C901	C90	0.796600	0.254100	0.203200
H491	H49	0.768100	0.273200	0.168600
C911	C91	0.816690	0.298290	0.263130
H501	H50	0.801300	0.346000	0.268300
C921	C92	0.798010	0.140900	0.127570
C931	C93	0.082300	0.520770	0.738400
C941	C94	0.085330	0.600150	0.764560
H511	H51	0.061400	0.639000	0.741500
C951	C95	0.123720	0.621790	0.824750
H521	H52	0.125300	0.674900	0.841700
C961	C96	0.159610	0.565080	0.859700
C971	C97	0.156720	0.485870	0.834890
H531	H53	0.180600	0.447200	0.858400
C981	C98	0.118040	0.463800	0.774580
H541	H54	0.116200	0.410200	0.758400
C991	C99	0.202430	0.591880	0.922310
Zn41	Zn4	0.798420	0.048520	0.025630
O191	O19	0.648800	0.592500	0.497270
O201	O20	0.693730	0.698800	0.516500
O211	O21	0.318440	0.576300	0.121370
O221	O22	0.261260	0.670350	0.080470
O231	O23	0.733470	0.036680	0.953560
O241	O24	0.703040	0.166050	0.938420
N41	N4	0.502910	0.864240	0.521910
C1001	C100	0.655370	0.667500	0.508980
C1011	C101	0.616320	0.718790	0.515120
C1021	C102	0.573090	0.683490	0.509520
H551	H55	0.568900	0.626700	0.503700
C1031	C103	0.536100	0.731010	0.512440
H561	H56	0.507200	0.706200	0.508700
C1041	C104	0.541730	0.815540	0.520900
C1051	C105	0.585050	0.851750	0.527150
H571	H57	0.589200	0.908600	0.533000
C1061	C106	0.622140	0.803660	0.524780
H581	H58	0.651400	0.828300	0.529700
C1071	C107	0.453810	0.860070	0.475990
C1081	C108	0.433050	0.814790	0.416460
H591	H59	0.452400	0.781800	0.402400
C1091	C109	0.383050	0.820040	0.378870
C1101	C110	0.354640	0.872670	0.400090
H601	H60	0.321100	0.876300	0.374400
C1111	C111	0.375760	0.918860	0.458300
H611	H61	0.356600	0.953500	0.471500
C1121	C112	0.425790	0.913010	0.496940
C1131	C113	0.459170	0.951310	0.558540
C1141	C114	0.453390	0.007950	0.602760
H621	H62	0.422800	0.029800	0.594300
C1151	C115	0.494040	0.031070	0.659330
H631	H63	0.490500	0.069900	0.688300
C1161	C116	0.540410	0.997670	0.674350
C1171	C117	0.546820	0.942270	0.630300
H641	H64	0.577500	0.920500	0.639000
C1181	C118	0.506190	0.920240	0.572810
C1191	C119	0.359700	0.771330	0.315510
C1201	C120	0.380590	0.698570	0.306470
H651	H65	0.408800	0.678600	0.341100
C1211	C121	0.360070	0.655180	0.246690
H661	H66	0.374700	0.606600	0.241500
C1221	C122	0.317620	0.683910	0.194150
C1231	C123	0.296600	0.754100	0.203200
H671	H67	0.268100	0.773200	0.168600
C1241	C124	0.316690	0.798290	0.263130
H681	H68	0.301300	0.846000	0.268300
C1251	C125	0.298010	0.640900	0.127570
C1261	C126	0.582300	0.020770	0.738400
C1271	C127	0.585330	0.100150	0.764560
H691	H69	0.561400	0.139000	0.741500
C1281	C128	0.623720	0.121790	0.824750
H701	H70	0.625300	0.174900	0.841700
C1291	C129	0.659610	0.065080	0.859700
C1301	C130	0.656720	0.985870	0.834890
H711	H71	0.680600	0.947200	0.858400
C1311	C131	0.618040	0.963800	0.774580
H721	H72	0.616200	0.910200	0.758400
C1321	C132	0.702430	0.091880	0.922310
Zn51	Zn5	0.298420	0.451480	0.525630
O251	O25	0.148800	0.907500	0.997270
O261	O26	0.193730	0.801200	0.016500
O271	O27	0.818440	0.923700	0.621370
O281	O28	0.761260	0.829650	0.580470
O291	O29	0.233470	0.463320	0.453560
O301	O30	0.203040	0.333950	0.438420
N51	N5	0.002910	0.635760	0.021910
C1331	C133	0.155370	0.832500	0.008980
C1341	C134	0.116320	0.781210	0.015120
C1351	C135	0.073090	0.816510	0.009520
H731	H73	0.068900	0.873300	0.003700
C1361	C136	0.036100	0.768990	0.012440
H741	H74	0.007200	0.793800	0.008700
C1371	C137	0.041730	0.684460	0.020900
C1381	C138	0.085050	0.648250	0.027150
H751	H75	0.089200	0.591400	0.033000
C1391	C139	0.122140	0.696340	0.024780
H761	H76	0.151400	0.671700	0.029700
C1401	C140	0.953810	0.639930	0.975990
C1411	C141	0.933050	0.685210	0.916460
H771	H77	0.952400	0.718200	0.902400
C1421	C142	0.883050	0.679960	0.878870
C1431	C143	0.854640	0.627330	0.900090
H781	H78	0.821100	0.623700	0.874400
C1441	C144	0.875760	0.581140	0.958300
H791	H79	0.856600	0.546500	0.971500
C1451	C145	0.925790	0.586990	0.996940
C1461	C146	0.959170	0.548690	0.058540
C1471	C147	0.953390	0.492050	0.102760
H801	H80	0.922800	0.470200	0.094300
C1481	C148	0.994040	0.468930	0.159330
H811	H81	0.990500	0.430100	0.188300
C1491	C149	0.040410	0.502330	0.174350
C1501	C150	0.046820	0.557730	0.130300
H821	H82	0.077500	0.579500	0.139000
C1511	C151	0.006190	0.579760	0.072810
C1521	C152	0.859700	0.728670	0.815510
C1531	C153	0.880590	0.801430	0.806470
H831	H83	0.908800	0.821400	0.841100
C1541	C154	0.860070	0.844820	0.746690
H841	H84	0.874700	0.893400	0.741500
C1551	C155	0.817620	0.816090	0.694150
C1561	C156	0.796600	0.745900	0.703200
H851	H85	0.768100	0.726800	0.668600
C1571	C157	0.816690	0.701710	0.763130
H861	H86	0.801300	0.654000	0.768300
C1581	C158	0.798010	0.859100	0.627570
C1591	C159	0.082300	0.479230	0.238400
C1601	C160	0.085330	0.399850	0.264560
H871	H87	0.061400	0.361000	0.241500
C1611	C161	0.123720	0.378210	0.324750
H881	H88	0.125300	0.325100	0.341700
C1621	C162	0.159610	0.434920	0.359700
C1631	C163	0.156720	0.514130	0.334890
H891	H89	0.180600	0.552800	0.358400
C1641	C164	0.118040	0.536200	0.274580
H901	H90	0.116200	0.589800	0.258400
C1651	C165	0.202430	0.408120	0.422310
Zn61	Zn6	0.798420	0.951480	0.525630
O311	O31	0.648800	0.407500	0.997270
O321	O32	0.693730	0.301200	0.016500
O331	O33	0.318440	0.423700	0.621370
O341	O34	0.261260	0.329650	0.580470
O351	O35	0.733470	0.963320	0.453560
O361	O36	0.703040	0.833950	0.438420
N61	N6	0.502910	0.135760	0.021910
C1661	C166	0.655370	0.332500	0.008980
C1671	C167	0.616320	0.281210	0.015120
C1681	C168	0.573090	0.316510	0.009520
H911	H91	0.568900	0.373300	0.003700
C1691	C169	0.536100	0.268990	0.012440
H921	H92	0.507200	0.293800	0.008700
C1701	C170	0.541730	0.184460	0.020900
C1711	C171	0.585050	0.148250	0.027150
H931	H93	0.589200	0.091400	0.033000
C1721	C172	0.622140	0.196340	0.024780
H941	H94	0.651400	0.171700	0.029700
C1731	C173	0.453810	0.139930	0.975990
C1741	C174	0.433050	0.185210	0.916460
H951	H95	0.452400	0.218200	0.902400
C1751	C175	0.383050	0.179960	0.878870
C1761	C176	0.354640	0.127330	0.900090
H961	H96	0.321100	0.123700	0.874400
C1771	C177	0.375760	0.081140	0.958300
H971	H97	0.356600	0.046500	0.971500
C1781	C178	0.425790	0.086990	0.996940
C1791	C179	0.459170	0.048690	0.058540
C1801	C180	0.453390	0.992050	0.102760
H981	H98	0.422800	0.970200	0.094300
C1811	C181	0.494040	0.968930	0.159330
H991	H99	0.490500	0.930100	0.188300
C1821	C182	0.540410	0.002330	0.174350
C1831	C183	0.546820	0.057730	0.130300
H1001	H100	0.577500	0.079500	0.139000
C1841	C184	0.506190	0.079760	0.072810
C1851	C185	0.359700	0.228670	0.815510
C1861	C186	0.380590	0.301430	0.806470
H1011	H101	0.408800	0.321400	0.841100
C1871	C187	0.360070	0.344820	0.746690
H1021	H102	0.374700	0.393400	0.741500
C1881	C188	0.317620	0.316090	0.694150
C1891	C189	0.296600	0.245900	0.703200
H1031	H103	0.268100	0.226800	0.668600
C1901	C190	0.316690	0.201710	0.763130
H1041	H104	0.301300	0.154000	0.768300
C1911	C191	0.298010	0.359100	0.627570
C1921	C192	0.582300	0.979230	0.238400
C1931	C193	0.585330	0.899850	0.264560
H1051	H105	0.561400	0.861000	0.241500
C1941	C194	0.623720	0.878210	0.324750
H1061	H106	0.625300	0.825100	0.341700
C1951	C195	0.659610	0.934920	0.359700
C1961	C196	0.656720	0.014130	0.334890
H1071	H107	0.680600	0.052800	0.358400
C1971	C197	0.618040	0.036200	0.274580
H1081	H108	0.616200	0.089800	0.258400
C1981	C198	0.702430	0.908120	0.422310
Zn71	Zn7	0.701580	0.451480	0.974370
O371	O37	0.851200	0.907500	0.502730
O381	O38	0.806270	0.801200	0.483500
O391	O39	0.181560	0.923700	0.878630
O401	O40	0.238740	0.829650	0.919530
O411	O41	0.766530	0.463320	0.046440
O421	O42	0.796960	0.333950	0.061580
N71	N7	0.997090	0.635760	0.478090
C1991	C199	0.844630	0.832500	0.491020
C2001	C200	0.883680	0.781210	0.484880
C2011	C201	0.926910	0.816510	0.490480
H1091	H109	0.931100	0.873300	0.496300
C2021	C202	0.963900	0.768990	0.487560
H1101	H110	0.992800	0.793800	0.491300
C2031	C203	0.958270	0.684460	0.479100
C2041	C204	0.914950	0.648250	0.472850
H1111	H111	0.910800	0.591400	0.467000
C2051	C205	0.877860	0.696340	0.475220
H1121	H112	0.848600	0.671700	0.470300
C2061	C206	0.046190	0.639930	0.524010
C2071	C207	0.066950	0.685210	0.583540
H1131	H113	0.047600	0.718200	0.597600
C2081	C208	0.116950	0.679960	0.621130
C2091	C209	0.145360	0.627330	0.599910
H1141	H114	0.178900	0.623700	0.625600
C2101	C210	0.124240	0.581140	0.541700
H1151	H115	0.143400	0.546500	0.528500
C2111	C211	0.074210	0.586990	0.503060
C2121	C212	0.040830	0.548690	0.441460
C2131	C213	0.046610	0.492050	0.397240
H1161	H116	0.077200	0.470200	0.405700
C2141	C214	0.005960	0.468930	0.340670
H1171	H117	0.009500	0.430100	0.311700
C2151	C215	0.959590	0.502330	0.325650
C2161	C216	0.953180	0.557730	0.369700
H1181	H118	0.922500	0.579500	0.361000
C2171	C217	0.993810	0.579760	0.427190
C2181	C218	0.140300	0.728670	0.684490
C2191	C219	0.119410	0.801430	0.693530
H1191	H119	0.091200	0.821400	0.658900
C2201	C220	0.139930	0.844820	0.753310
H1201	H120	0.125300	0.893400	0.758500
C2211	C221	0.182380	0.816090	0.805850
C2221	C222	0.203400	0.745900	0.796800
H1211	H121	0.231900	0.726800	0.831400
C2231	C223	0.183310	0.701710	0.736870
H1221	H122	0.198700	0.654000	0.731700
C2241	C224	0.201990	0.859100	0.872430
C2251	C225	0.917700	0.479230	0.261600
C2261	C226	0.914670	0.399850	0.235440
H1231	H123	0.938600	0.361000	0.258500
C2271	C227	0.876280	0.378210	0.175250
H1241	H124	0.874700	0.325100	0.158300
C2281	C228	0.840390	0.434920	0.140300
C2291	C229	0.843280	0.514130	0.165110
H1251	H125	0.819400	0.552800	0.141600
C2301	C230	0.881960	0.536200	0.225420
H1261	H126	0.883800	0.589800	0.241600
C2311	C231	0.797570	0.408120	0.077690
Zn81	Zn8	0.201580	0.951480	0.974370
O431	O43	0.351200	0.407500	0.502730
O441	O44	0.306270	0.301200	0.483500
O451	O45	0.681560	0.423700	0.878630
O461	O46	0.738740	0.329650	0.919530
O471	O47	0.266530	0.963320	0.046440
O481	O48	0.296960	0.833950	0.061580
N81	N8	0.497090	0.135760	0.478090
C2321	C232	0.344630	0.332500	0.491020
C2331	C233	0.383680	0.281210	0.484880
C2341	C234	0.426910	0.316510	0.490480
H1271	H127	0.431100	0.373300	0.496300
C2351	C235	0.463900	0.268990	0.487560
H1281	H128	0.492800	0.293800	0.491300
C2361	C236	0.458270	0.184460	0.479100
C2371	C237	0.414950	0.148250	0.472850
H1291	H129	0.410800	0.091400	0.467000
C2381	C238	0.377860	0.196340	0.475220
H1301	H130	0.348600	0.171700	0.470300
C2391	C239	0.546190	0.139930	0.524010
C2401	C240	0.566950	0.185210	0.583540
H1311	H131	0.547600	0.218200	0.597600
C2411	C241	0.616950	0.179960	0.621130
C2421	C242	0.645360	0.127330	0.599910
H1321	H132	0.678900	0.123700	0.625600
C2431	C243	0.624240	0.081140	0.541700
H1331	H133	0.643400	0.046500	0.528500
C2441	C244	0.574210	0.086990	0.503060
C2451	C245	0.540830	0.048690	0.441460
C2461	C246	0.546610	0.992050	0.397240
H1341	H134	0.577200	0.970200	0.405700
C2471	C247	0.505960	0.968930	0.340670
H1351	H135	0.509500	0.930100	0.311700
C2481	C248	0.459590	0.002330	0.325650
C2491	C249	0.453180	0.057730	0.369700
H1361	H136	0.422500	0.079500	0.361000
C2501	C250	0.493810	0.079760	0.427190
C2511	C251	0.640300	0.228670	0.684490
C2521	C252	0.619410	0.301430	0.693530
H1371	H137	0.591200	0.321400	0.658900
C2531	C253	0.639930	0.344820	0.753310
H1381	H138	0.625300	0.393400	0.758500
C2541	C254	0.682380	0.316090	0.805850
C2551	C255	0.703400	0.245900	0.796800
H1391	H139	0.731900	0.226800	0.831400
C2561	C256	0.683310	0.201710	0.736870
H1401	H140	0.698700	0.154000	0.731700
C2571	C257	0.701990	0.359100	0.872430
C2581	C258	0.417700	0.979230	0.261600
C2591	C259	0.414670	0.899850	0.235440
H1411	H141	0.438600	0.861000	0.258500
C2601	C260	0.376280	0.878210	0.175250
H1421	H142	0.374700	0.825100	0.158300
C2611	C261	0.340390	0.934920	0.140300
C2621	C262	0.343280	0.014130	0.165110
H1431	H143	0.319400	0.052800	0.141600
C2631	C263	0.381960	0.036200	0.225420
H1441	H144	0.383800	0.089800	0.241600
C2641	C264	0.297570	0.908120	0.077690
Zn91	Zn9	0.750000	0.750000	0.500000
Zn101	Zn10	0.250000	0.750000	0.000000
Zn111	Zn11	0.250000	0.250000	0.500000
Zn121	Zn12	0.750000	0.250000	0.000000
