data_VANXUD_clean_PM
_symmetry_space_group_name_H-M	'P1'
_cell_length_a	10.423600
_cell_length_b	10.423600
_cell_length_c	8.948700
_cell_angle_alpha	90.000000
_cell_angle_beta	90.000000
_cell_angle_gamma	90.000000
_symmetry_Int_Tables_number 1

loop_
_symmetry_equiv_pos_as_xyz
'x,y,z'

loop_
_atom_site_label
_atom_site_type_symbol
_atom_site_fract_x
_atom_site_fract_y
_atom_site_fract_z
P11	P1	0.610100	0.406600	0.201600
Co11	Co1	0.371500	0.609600	0.160000
O11	O1	0.504000	0.500100	0.246500
O21	O2	0.660200	0.437400	0.045600
O31	O3	0.715900	0.426300	0.317100
O41	O4	0.557300	0.271100	0.211600
P21	P2	0.889900	0.093400	0.201600
Co21	Co2	0.128500	0.890400	0.160000
O51	O5	0.996000	0.999900	0.246500
O61	O6	0.839800	0.062600	0.045600
O71	O7	0.784100	0.073700	0.317100
O81	O8	0.942700	0.228900	0.211600
P31	P3	0.593400	0.110100	0.701600
Co31	Co3	0.390400	0.871500	0.660000
O91	O9	0.499900	0.004000	0.746500
O101	O10	0.562600	0.160200	0.545600
O111	O11	0.573700	0.215900	0.817100
O121	O12	0.728900	0.057300	0.711600
P41	P4	0.906600	0.389900	0.701600
Co41	Co4	0.109600	0.628500	0.660000
O131	O13	0.000100	0.496000	0.746500
O141	O14	0.937400	0.339800	0.545600
O151	O15	0.926300	0.284100	0.817100
O161	O16	0.771100	0.442700	0.711600
P51	P5	0.389900	0.593400	0.798400
Co51	Co5	0.628500	0.390400	0.840000
O171	O17	0.496000	0.499900	0.753500
O181	O18	0.339800	0.562600	0.954400
O191	O19	0.284100	0.573700	0.682900
O201	O20	0.442700	0.728900	0.788400
P61	P6	0.110100	0.906600	0.798400
Co61	Co6	0.871500	0.109600	0.840000
O211	O21	0.004000	0.000100	0.753500
O221	O22	0.160200	0.937400	0.954400
O231	O23	0.215900	0.926300	0.682900
O241	O24	0.057300	0.771100	0.788400
P71	P7	0.406600	0.889900	0.298400
Co71	Co7	0.609600	0.128500	0.340000
O251	O25	0.500100	0.996000	0.253500
O261	O26	0.437400	0.839800	0.454400
O271	O27	0.426300	0.784100	0.182900
O281	O28	0.271100	0.942700	0.288400
P81	P8	0.093400	0.610100	0.298400
Co81	Co8	0.890400	0.371500	0.340000
O291	O29	0.999900	0.504000	0.253500
O301	O30	0.062600	0.660200	0.454400
O311	O31	0.073700	0.715900	0.182900
O321	O32	0.228900	0.557300	0.288400
