data_VAPFOJ_clean_PM
_symmetry_space_group_name_H-M	'P1'
_cell_length_a	7.306800
_cell_length_b	15.226000
_cell_length_c	17.634000
_cell_angle_alpha	90.000000
_cell_angle_beta	90.000000
_cell_angle_gamma	94.447700
_symmetry_Int_Tables_number 1

loop_
_symmetry_equiv_pos_as_xyz
'x,y,z'

loop_
_atom_site_label
_atom_site_type_symbol
_atom_site_fract_x
_atom_site_fract_y
_atom_site_fract_z
Ba11	Ba1	0.754100	0.079110	0.044710
Ba21	Ba2	0.745900	0.420890	0.544710
Ba31	Ba3	0.245900	0.920890	0.955290
Ba41	Ba4	0.254100	0.579110	0.455290
H11	H1	0.858200	0.627300	0.866800
H21	H2	0.840700	0.777700	0.874000
H31	H3	0.626800	0.745300	0.085700
H41	H4	0.555000	0.651600	0.175500
H51	H5	0.541000	0.395400	0.235800
H61	H6	0.666300	0.363200	0.120100
H71	H7	0.641800	0.872700	0.366800
H81	H8	0.659300	0.722300	0.374000
H91	H9	0.873200	0.754700	0.585700
H101	H10	0.945000	0.848400	0.675500
H111	H11	0.959000	0.104600	0.735800
H121	H12	0.833700	0.136800	0.620100
H131	H13	0.141800	0.372700	0.133200
H141	H14	0.159300	0.222300	0.126000
H151	H15	0.373200	0.254700	0.914300
H161	H16	0.445000	0.348400	0.824500
H171	H17	0.459000	0.604600	0.764200
H181	H18	0.333700	0.636800	0.879900
H191	H19	0.358200	0.127300	0.633200
H201	H20	0.340700	0.277700	0.626000
H211	H21	0.126800	0.245300	0.414300
H221	H22	0.055000	0.151600	0.324500
H231	H23	0.041000	0.895400	0.264200
H241	H24	0.166300	0.863200	0.379900
Pt11	Pt1	0.788110	0.464910	0.973590
Pt21	Pt2	0.711890	0.035090	0.473590
Pt31	Pt3	0.211890	0.535090	0.026410
Pt41	Pt4	0.288110	0.964910	0.526410
C11	C1	0.814300	0.652100	0.912100
C21	C2	0.802900	0.741500	0.915900
C31	C3	0.735900	0.778800	0.981200
C41	C4	0.678700	0.722600	0.041100
C51	C5	0.699400	0.633100	0.034000
C61	C6	0.648300	0.569600	0.095300
C71	C7	0.574300	0.591900	0.164600
C81	C8	0.528800	0.526600	0.217900
C91	C9	0.566900	0.441300	0.200000
C101	C10	0.641800	0.422300	0.130800
C111	C11	0.730400	0.875700	0.991000
C121	C12	0.440800	0.546500	0.293200
C131	C13	0.884600	0.453800	0.871600
C141	C14	0.793000	0.337600	0.985800
C151	C15	0.685700	0.847900	0.412100
C161	C16	0.697100	0.758500	0.415900
C171	C17	0.764100	0.721200	0.481200
C181	C18	0.821300	0.777400	0.541100
C191	C19	0.800600	0.866900	0.534000
C201	C20	0.851700	0.930400	0.595300
C211	C21	0.925700	0.908100	0.664600
C221	C22	0.971200	0.973400	0.717900
C231	C23	0.933100	0.058700	0.700000
C241	C24	0.858200	0.077700	0.630800
C251	C25	0.769600	0.624300	0.491000
C261	C26	0.059200	0.953500	0.793200
C271	C27	0.615400	0.046200	0.371600
C281	C28	0.707000	0.162400	0.485800
C291	C29	0.185700	0.347900	0.087900
C301	C30	0.197100	0.258500	0.084100
C311	C31	0.264100	0.221200	0.018800
C321	C32	0.321300	0.277400	0.958900
C331	C33	0.300600	0.366900	0.966000
C341	C34	0.351700	0.430400	0.904700
C351	C35	0.425700	0.408100	0.835400
C361	C36	0.471200	0.473400	0.782100
C371	C37	0.433100	0.558700	0.800000
C381	C38	0.358200	0.577700	0.869200
C391	C39	0.269600	0.124300	0.009000
C401	C40	0.559200	0.453500	0.706800
C411	C41	0.115400	0.546200	0.128400
C421	C42	0.207000	0.662400	0.014200
C431	C43	0.314300	0.152100	0.587900
C441	C44	0.302900	0.241500	0.584100
C451	C45	0.235900	0.278800	0.518800
C461	C46	0.178700	0.222600	0.458900
C471	C47	0.199400	0.133100	0.466000
C481	C48	0.148300	0.069600	0.404700
C491	C49	0.074300	0.091900	0.335400
C501	C50	0.028800	0.026600	0.282100
C511	C51	0.066900	0.941300	0.300000
C521	C52	0.141800	0.922300	0.369200
C531	C53	0.230400	0.375700	0.509000
C541	C54	0.940800	0.046500	0.206800
C551	C55	0.384600	0.953800	0.628400
C561	C56	0.293000	0.837600	0.514200
N11	N1	0.765700	0.598400	0.970200
N21	N2	0.681200	0.483700	0.078300
N31	N3	0.941400	0.449600	0.811000
N41	N4	0.790300	0.263600	0.998400
N51	N5	0.734300	0.901600	0.470200
N61	N6	0.818800	0.016300	0.578300
N71	N7	0.558600	0.050400	0.311000
N81	N8	0.709700	0.236400	0.498400
N91	N9	0.234300	0.401600	0.029800
N101	N10	0.318800	0.516300	0.921700
N111	N11	0.058600	0.550400	0.189000
N121	N12	0.209700	0.736400	0.001600
N131	N13	0.265700	0.098400	0.529800
N141	N14	0.181200	0.983700	0.421700
N151	N15	0.441400	0.949600	0.689000
N161	N16	0.290300	0.763600	0.501600
O11	O1	0.873000	0.923300	0.974100
O21	O2	0.586200	0.904900	0.017100
O31	O3	0.414600	0.625100	0.308400
O41	O4	0.394700	0.482300	0.335700
O51	O5	0.627000	0.576700	0.474100
O61	O6	0.913800	0.595100	0.517100
O71	O7	0.085400	0.874900	0.808400
O81	O8	0.105300	0.017700	0.835700
O91	O9	0.127000	0.076700	0.025900
O101	O10	0.413800	0.095100	0.982900
O111	O11	0.585400	0.374900	0.691600
O121	O12	0.605300	0.517700	0.664300
O131	O13	0.373000	0.423300	0.525900
O141	O14	0.086200	0.404900	0.482900
O151	O15	0.914600	0.125100	0.191600
O161	O16	0.894700	0.982300	0.164300
