data_VAPHOM_clean_PM
_symmetry_space_group_name_H-M	'P1'
_cell_length_a	15.115400
_cell_length_b	8.726900
_cell_length_c	16.167500
_cell_angle_alpha	90.000000
_cell_angle_beta	108.156000
_cell_angle_gamma	90.000000
_symmetry_Int_Tables_number 1

loop_
_symmetry_equiv_pos_as_xyz
'x,y,z'

loop_
_atom_site_label
_atom_site_type_symbol
_atom_site_fract_x
_atom_site_fract_y
_atom_site_fract_z
Zn11	Zn1	0.365700	0.370730	0.484840
P11	P1	0.154440	0.388500	0.378170
H11	H1	0.114700	0.524800	0.366200
P21	P2	0.984030	0.908300	0.117470
H21	H2	0.974700	0.803000	0.172800
O11	O1	0.255700	0.415200	0.385800
O21	O2	0.139300	0.324600	0.459200
O31	O3	0.108100	0.297500	0.294800
O41	O4	0.042800	0.036200	0.172800
O51	O5	0.032100	0.831000	0.060400
O61	O6	0.886100	0.962100	0.068400
Zn21	Zn2	0.865700	0.870730	0.484840
P31	P3	0.654440	0.888500	0.378170
H31	H3	0.614700	0.024800	0.366200
P41	P4	0.484030	0.408300	0.117470
H41	H4	0.474700	0.303000	0.172800
O71	O7	0.755700	0.915200	0.385800
O81	O8	0.639300	0.824600	0.459200
O91	O9	0.608100	0.797500	0.294800
O101	O10	0.542800	0.536200	0.172800
O111	O11	0.532100	0.331000	0.060400
O121	O12	0.386100	0.462100	0.068400
Zn31	Zn3	0.634300	0.370730	0.015160
P51	P5	0.845560	0.388500	0.121830
H51	H5	0.885300	0.524800	0.133800
P61	P6	0.015970	0.908300	0.382530
H61	H6	0.025300	0.803000	0.327200
O131	O13	0.744300	0.415200	0.114200
O141	O14	0.860700	0.324600	0.040800
O151	O15	0.891900	0.297500	0.205200
O161	O16	0.957200	0.036200	0.327200
O171	O17	0.967900	0.831000	0.439600
O181	O18	0.113900	0.962100	0.431600
Zn41	Zn4	0.134300	0.870730	0.015160
P71	P7	0.345560	0.888500	0.121830
H71	H7	0.385300	0.024800	0.133800
P81	P8	0.515970	0.408300	0.382530
H81	H8	0.525300	0.303000	0.327200
O191	O19	0.244300	0.915200	0.114200
O201	O20	0.360700	0.824600	0.040800
O211	O21	0.391900	0.797500	0.205200
O221	O22	0.457200	0.536200	0.327200
O231	O23	0.467900	0.331000	0.439600
O241	O24	0.613900	0.462100	0.431600
Zn51	Zn5	0.634300	0.629270	0.515160
P91	P9	0.845560	0.611500	0.621830
H91	H9	0.885300	0.475200	0.633800
P101	P10	0.015970	0.091700	0.882530
H101	H10	0.025300	0.197000	0.827200
O251	O25	0.744300	0.584800	0.614200
O261	O26	0.860700	0.675400	0.540800
O271	O27	0.891900	0.702500	0.705200
O281	O28	0.957200	0.963800	0.827200
O291	O29	0.967900	0.169000	0.939600
O301	O30	0.113900	0.037900	0.931600
Zn61	Zn6	0.134300	0.129270	0.515160
P111	P11	0.345560	0.111500	0.621830
H111	H11	0.385300	0.975200	0.633800
P121	P12	0.515970	0.591700	0.882530
H121	H12	0.525300	0.697000	0.827200
O311	O31	0.244300	0.084800	0.614200
O321	O32	0.360700	0.175400	0.540800
O331	O33	0.391900	0.202500	0.705200
O341	O34	0.457200	0.463800	0.827200
O351	O35	0.467900	0.669000	0.939600
O361	O36	0.613900	0.537900	0.931600
Zn71	Zn7	0.365700	0.629270	0.984840
P131	P13	0.154440	0.611500	0.878170
H131	H13	0.114700	0.475200	0.866200
P141	P14	0.984030	0.091700	0.617470
H141	H14	0.974700	0.197000	0.672800
O371	O37	0.255700	0.584800	0.885800
O381	O38	0.139300	0.675400	0.959200
O391	O39	0.108100	0.702500	0.794800
O401	O40	0.042800	0.963800	0.672800
O411	O41	0.032100	0.169000	0.560400
O421	O42	0.886100	0.037900	0.568400
Zn81	Zn8	0.865700	0.129270	0.984840
P151	P15	0.654440	0.111500	0.878170
H151	H15	0.614700	0.975200	0.866200
P161	P16	0.484030	0.591700	0.617470
H161	H16	0.474700	0.697000	0.672800
O431	O43	0.755700	0.084800	0.885800
O441	O44	0.639300	0.175400	0.959200
O451	O45	0.608100	0.202500	0.794800
O461	O46	0.542800	0.463800	0.672800
O471	O47	0.532100	0.669000	0.560400
O481	O48	0.386100	0.537900	0.568400
Zn91	Zn9	0.000000	0.165650	0.250000
Zn101	Zn10	0.500000	0.665650	0.250000
Zn111	Zn11	0.000000	0.834350	0.750000
Zn121	Zn12	0.500000	0.334350	0.750000
