data_VAQLAC_clean_PM
_symmetry_space_group_name_H-M	'P1'
_cell_length_a	8.395000
_cell_length_b	9.562000
_cell_length_c	16.475000
_cell_angle_alpha	90.000000
_cell_angle_beta	90.000000
_cell_angle_gamma	90.000000
_symmetry_Int_Tables_number 1

loop_
_symmetry_equiv_pos_as_xyz
'x,y,z'

loop_
_atom_site_label
_atom_site_type_symbol
_atom_site_fract_x
_atom_site_fract_y
_atom_site_fract_z
Cd11	Cd1	0.614510	0.104520	0.938590
Cd21	Cd2	0.385490	0.895480	0.438590
Cd31	Cd3	0.114510	0.395480	0.938590
Cd41	Cd4	0.885490	0.604520	0.438590
H11	H1	0.648000	0.270600	0.532000
H21	H2	0.579900	0.376300	0.465200
H31	H3	0.522400	0.489800	0.593900
H41	H4	0.646500	0.609300	0.618900
H51	H5	0.931800	0.361800	0.583300
H61	H6	0.903900	0.507800	0.628000
H71	H7	0.621000	0.402800	0.856900
H81	H8	0.729900	0.521000	0.747000
H91	H9	0.790400	0.147600	0.635800
H101	H10	0.688500	0.040000	0.750900
H111	H11	0.352000	0.729400	0.032000
H121	H12	0.420100	0.623700	0.965200
H131	H13	0.477600	0.510200	0.093900
H141	H14	0.353500	0.390700	0.118900
H151	H15	0.068200	0.638200	0.083300
H161	H16	0.096100	0.492200	0.128000
H171	H17	0.379000	0.597200	0.356900
H181	H18	0.270100	0.479000	0.247000
H191	H19	0.209600	0.852400	0.135800
H201	H20	0.311500	0.960000	0.250900
H211	H21	0.148000	0.229400	0.532000
H221	H22	0.079900	0.123700	0.465200
H231	H23	0.022400	0.010200	0.593900
H241	H24	0.146500	0.890700	0.618900
H251	H25	0.431800	0.138200	0.583300
H261	H26	0.403900	0.992200	0.628000
H271	H27	0.121000	0.097200	0.856900
H281	H28	0.229900	0.979000	0.747000
H291	H29	0.290400	0.352400	0.635800
H301	H30	0.188500	0.460000	0.750900
H311	H31	0.852000	0.770600	0.032000
H321	H32	0.920100	0.876300	0.965200
H331	H33	0.977600	0.989800	0.093900
H341	H34	0.853500	0.109300	0.118900
H351	H35	0.568200	0.861800	0.083300
H361	H36	0.596100	0.007800	0.128000
H371	H37	0.879000	0.902800	0.356900
H381	H38	0.770100	0.021000	0.247000
H391	H39	0.709600	0.647600	0.135800
H401	H40	0.811500	0.540000	0.250900
C11	C1	0.677600	0.347000	0.494300
C21	C2	0.797600	0.291660	0.433000
C31	C3	0.607400	0.552000	0.573030
C41	C4	0.537600	0.648100	0.508480
C51	C5	0.849300	0.423200	0.607320
C61	C6	0.658300	0.350300	0.811800
C71	C7	0.722300	0.421900	0.746140
C81	C8	0.774900	0.347000	0.679180
C91	C9	0.758900	0.202600	0.681110
C101	C10	0.696300	0.139100	0.749940
C111	C11	0.322400	0.653000	0.994300
C121	C12	0.202400	0.708340	0.933000
C131	C13	0.392600	0.448000	0.073030
C141	C14	0.462400	0.351900	0.008480
C151	C15	0.150700	0.576800	0.107320
C161	C16	0.341700	0.649700	0.311800
C171	C17	0.277700	0.578100	0.246140
C181	C18	0.225100	0.653000	0.179180
C191	C19	0.241100	0.797400	0.181110
C201	C20	0.303700	0.860900	0.249940
C211	C21	0.177600	0.153000	0.494300
C221	C22	0.297600	0.208340	0.433000
C231	C23	0.107400	0.948000	0.573030
C241	C24	0.037600	0.851900	0.508480
C251	C25	0.349300	0.076800	0.607320
C261	C26	0.158300	0.149700	0.811800
C271	C27	0.222300	0.078100	0.746140
C281	C28	0.274900	0.153000	0.679180
C291	C29	0.258900	0.297400	0.681110
C301	C30	0.196300	0.360900	0.749940
C311	C31	0.822400	0.847000	0.994300
C321	C32	0.702400	0.791660	0.933000
C331	C33	0.892600	0.052000	0.073030
C341	C34	0.962400	0.148100	0.008480
C351	C35	0.650700	0.923200	0.107320
C361	C36	0.841700	0.850300	0.311800
C371	C37	0.777700	0.921900	0.246140
C381	C38	0.725100	0.847000	0.179180
C391	C39	0.741100	0.702600	0.181110
C401	C40	0.803700	0.639100	0.249940
N11	N1	0.738600	0.466330	0.541820
N21	N2	0.646800	0.210500	0.814620
N31	N3	0.261400	0.533670	0.041820
N41	N4	0.353200	0.789500	0.314620
N51	N5	0.238600	0.033670	0.541820
N61	N6	0.146800	0.289500	0.814620
N71	N7	0.761400	0.966330	0.041820
N81	N8	0.853200	0.710500	0.314620
O11	O1	0.885000	0.379620	0.396410
O21	O2	0.800000	0.163970	0.418760
O31	O3	0.611820	0.670690	0.445020
O41	O4	0.405060	0.705240	0.524800
O51	O5	0.115000	0.620380	0.896410
O61	O6	0.200000	0.836030	0.918760
O71	O7	0.388180	0.329310	0.945020
O81	O8	0.594940	0.294760	0.024800
O91	O9	0.385000	0.120380	0.396410
O101	O10	0.300000	0.336030	0.418760
O111	O11	0.111820	0.829310	0.445020
O121	O12	0.905060	0.794760	0.524800
O131	O13	0.615000	0.879620	0.896410
O141	O14	0.700000	0.663970	0.918760
O151	O15	0.888180	0.170690	0.945020
O161	O16	0.094940	0.205240	0.024800
