data_VARWUI_clean_PM
_symmetry_space_group_name_H-M	'P1'
_cell_length_a	11.537700
_cell_length_b	20.723800
_cell_length_c	23.584400
_cell_angle_alpha	90.000000
_cell_angle_beta	90.000000
_cell_angle_gamma	90.000000
_symmetry_Int_Tables_number 1

loop_
_symmetry_equiv_pos_as_xyz
'x,y,z'

loop_
_atom_site_label
_atom_site_type_symbol
_atom_site_fract_x
_atom_site_fract_y
_atom_site_fract_z
Gd11	Gd1	0.581320	0.964300	0.268260
C11	C1	0.755800	0.955500	0.383800
N11	N1	0.861000	0.917700	0.468500
H11	H1	0.859600	0.915100	0.506200
H21	H2	0.923200	0.939900	0.457600
H31	H3	0.864000	0.878200	0.453800
Gd21	Gd2	0.916440	0.973180	0.265630
C21	C2	0.755200	0.950800	0.448400
H41	H4	0.686500	0.926900	0.460900
N21	N2	0.380100	0.754400	0.277800
H51	H5	0.349600	0.718300	0.291800
H61	H6	0.339100	0.767200	0.247900
H71	H7	0.378800	0.785100	0.304200
Gd31	Gd3	0.756220	0.877160	0.152200
C31	C3	0.751100	0.019200	0.471400
H81	H8	0.818000	0.042500	0.457300
H91	H9	0.682500	0.040300	0.456500
N31	N3	0.896800	0.679800	0.205600
H101	H10	0.866600	0.714700	0.189300
H111	H11	0.850500	0.666700	0.233600
H121	H12	0.903600	0.648500	0.180000
Gd41	Gd4	0.735580	0.066780	0.157270
C41	C4	0.749200	0.024600	0.535600
C51	C5	0.554500	0.804400	0.236400
C61	C6	0.502600	0.742000	0.260200
H131	H13	0.546500	0.730600	0.294300
C71	C7	0.508700	0.686000	0.220800
H141	H14	0.588100	0.681400	0.207900
H151	H15	0.461300	0.695400	0.187800
C81	C8	0.469400	0.621800	0.245900
C91	C9	0.067000	0.636300	0.257500
C101	C10	0.016200	0.696100	0.229700
H161	H16	0.066600	0.708000	0.197900
C111	C11	0.008800	0.753800	0.269400
H171	H17	0.958300	0.742600	0.300700
H181	H18	0.085300	0.761700	0.284900
C121	C12	0.965200	0.815800	0.243500
O11	O1	0.753600	0.905110	0.250950
H191	H19	0.757600	0.866500	0.274900
O21	O2	0.743400	0.033400	0.256340
H201	H20	0.741200	0.070300	0.282300
O31	O3	0.861800	0.975400	0.169250
H211	H21	0.929700	0.978600	0.144500
O41	O4	0.625800	0.968500	0.170740
H221	H22	0.556100	0.967200	0.147000
O51	O5	0.853100	0.957600	0.359800
O61	O6	0.659200	0.958900	0.360800
O71	O7	0.744700	0.079900	0.556820
O81	O8	0.754200	0.972800	0.563170
O91	O9	0.513400	0.856800	0.255900
O101	O10	0.633000	0.798500	0.201700
O111	O11	0.412400	0.624300	0.292200
O121	O12	0.496200	0.571400	0.220900
O131	O13	0.023200	0.583300	0.243000
O141	O14	0.149800	0.644500	0.288700
O151	O15	0.994100	0.867100	0.266800
O161	O16	0.897500	0.811200	0.201700
Gd51	Gd5	0.918680	0.035700	0.768260
C131	C13	0.744200	0.044500	0.883800
N41	N4	0.639000	0.082300	0.968500
H231	H23	0.640400	0.084900	0.006200
H241	H24	0.576800	0.060100	0.957600
H251	H25	0.636000	0.121800	0.953800
Gd61	Gd6	0.583560	0.026820	0.765630
C141	C14	0.744800	0.049200	0.948400
H261	H26	0.813500	0.073100	0.960900
N51	N5	0.119900	0.245600	0.777800
H271	H27	0.150400	0.281700	0.791800
H281	H28	0.160900	0.232800	0.747900
H291	H29	0.121200	0.214900	0.804200
Gd71	Gd7	0.743780	0.122840	0.652200
C151	C15	0.748900	0.980800	0.971400
H301	H30	0.682000	0.957500	0.957300
H311	H31	0.817500	0.959700	0.956500
N61	N6	0.603200	0.320200	0.705600
H321	H32	0.633400	0.285300	0.689300
H331	H33	0.649500	0.333300	0.733600
H341	H34	0.596400	0.351500	0.680000
Gd81	Gd8	0.764420	0.933220	0.657270
C161	C16	0.750800	0.975400	0.035600
C171	C17	0.945500	0.195600	0.736400
C181	C18	0.997400	0.258000	0.760200
H351	H35	0.953500	0.269400	0.794300
C191	C19	0.991300	0.314000	0.720800
H361	H36	0.911900	0.318600	0.707900
H371	H37	0.038700	0.304600	0.687800
C201	C20	0.030600	0.378200	0.745900
C211	C21	0.433000	0.363700	0.757500
C221	C22	0.483800	0.303900	0.729700
H381	H38	0.433400	0.292000	0.697900
C231	C23	0.491200	0.246200	0.769400
H391	H39	0.541700	0.257400	0.800700
H401	H40	0.414700	0.238300	0.784900
C241	C24	0.534800	0.184200	0.743500
O171	O17	0.746400	0.094890	0.750950
H411	H41	0.742400	0.133500	0.774900
O181	O18	0.756600	0.966600	0.756340
H421	H42	0.758800	0.929700	0.782300
O191	O19	0.638200	0.024600	0.669250
H431	H43	0.570300	0.021400	0.644500
O201	O20	0.874200	0.031500	0.670740
H441	H44	0.943900	0.032800	0.647000
O211	O21	0.646900	0.042400	0.859800
O221	O22	0.840800	0.041100	0.860800
O231	O23	0.755300	0.920100	0.056820
O241	O24	0.745800	0.027200	0.063170
O251	O25	0.986600	0.143200	0.755900
O261	O26	0.867000	0.201500	0.701700
O271	O27	0.087600	0.375700	0.792200
O281	O28	0.003800	0.428600	0.720900
O291	O29	0.476800	0.416700	0.743000
O301	O30	0.350200	0.355500	0.788700
O311	O31	0.505900	0.132900	0.766800
O321	O32	0.602500	0.188800	0.701700
Gd91	Gd9	0.418680	0.464300	0.231740
C251	C25	0.244200	0.455500	0.116200
N71	N7	0.139000	0.417700	0.031500
H451	H45	0.140400	0.415100	0.993800
H461	H46	0.076800	0.439900	0.042400
H471	H47	0.136000	0.378200	0.046200
Gd101	Gd10	0.083560	0.473180	0.234370
C261	C26	0.244800	0.450800	0.051600
H481	H48	0.313500	0.426900	0.039100
N81	N8	0.619900	0.254400	0.222200
H491	H49	0.650400	0.218300	0.208200
H501	H50	0.660900	0.267200	0.252100
H511	H51	0.621200	0.285100	0.195800
Gd111	Gd11	0.243780	0.377160	0.347800
C271	C27	0.248900	0.519200	0.028600
H521	H52	0.182000	0.542500	0.042700
H531	H53	0.317500	0.540300	0.043500
N91	N9	0.103200	0.179800	0.294400
H541	H54	0.133400	0.214700	0.310700
H551	H55	0.149500	0.166700	0.266400
H561	H56	0.096400	0.148500	0.320000
Gd121	Gd12	0.264420	0.566780	0.342730
C281	C28	0.250800	0.524600	0.964400
C291	C29	0.445500	0.304400	0.263600
C301	C30	0.497400	0.242000	0.239800
H571	H57	0.453500	0.230600	0.205700
C311	C31	0.491300	0.186000	0.279200
H581	H58	0.411900	0.181400	0.292100
H591	H59	0.538700	0.195400	0.312200
C321	C32	0.530600	0.121800	0.254100
C331	C33	0.933000	0.136300	0.242500
C341	C34	0.983800	0.196100	0.270300
H601	H60	0.933400	0.208000	0.302100
C351	C35	0.991200	0.253800	0.230600
H611	H61	0.041700	0.242600	0.199300
H621	H62	0.914700	0.261700	0.215100
C361	C36	0.034800	0.315800	0.256500
O331	O33	0.246400	0.405110	0.249050
H631	H63	0.242400	0.366500	0.225100
O341	O34	0.256600	0.533400	0.243660
H641	H64	0.258800	0.570300	0.217700
O351	O35	0.138200	0.475400	0.330750
H651	H65	0.070300	0.478600	0.355500
O361	O36	0.374200	0.468500	0.329260
H661	H66	0.443900	0.467200	0.353000
O371	O37	0.146900	0.457600	0.140200
O381	O38	0.340800	0.458900	0.139200
O391	O39	0.255300	0.579900	0.943180
O401	O40	0.245800	0.472800	0.936830
O411	O41	0.486600	0.356800	0.244100
O421	O42	0.367000	0.298500	0.298300
O431	O43	0.587600	0.124300	0.207800
O441	O44	0.503800	0.071400	0.279100
O451	O45	0.976800	0.083300	0.257000
O461	O46	0.850200	0.144500	0.211300
O471	O47	0.005900	0.367100	0.233200
O481	O48	0.102500	0.311200	0.298300
Gd131	Gd13	0.081320	0.535700	0.731740
C371	C37	0.255800	0.544500	0.616200
N101	N10	0.361000	0.582300	0.531500
H671	H67	0.359600	0.584900	0.493800
H681	H68	0.423200	0.560100	0.542400
H691	H69	0.364000	0.621800	0.546200
Gd141	Gd14	0.416440	0.526820	0.734370
C381	C38	0.255200	0.549200	0.551600
H701	H70	0.186500	0.573100	0.539100
N111	N11	0.880100	0.745600	0.722200
H711	H71	0.849600	0.781700	0.708200
H721	H72	0.839100	0.732800	0.752100
H731	H73	0.878800	0.714900	0.695800
Gd151	Gd15	0.256220	0.622840	0.847800
C391	C39	0.251100	0.480800	0.528600
H741	H74	0.318000	0.457500	0.542700
H751	H75	0.182500	0.459700	0.543500
N121	N12	0.396800	0.820200	0.794400
H761	H76	0.366600	0.785300	0.810700
H771	H77	0.350500	0.833300	0.766400
H781	H78	0.403600	0.851500	0.820000
Gd161	Gd16	0.235580	0.433220	0.842730
C401	C40	0.249200	0.475400	0.464400
C411	C41	0.054500	0.695600	0.763600
C421	C42	0.002600	0.758000	0.739800
H791	H79	0.046500	0.769400	0.705700
C431	C43	0.008700	0.814000	0.779200
H801	H80	0.088100	0.818600	0.792100
H811	H81	0.961300	0.804600	0.812200
C441	C44	0.969400	0.878200	0.754100
C451	C45	0.567000	0.863700	0.742500
C461	C46	0.516200	0.803900	0.770300
H821	H82	0.566600	0.792000	0.802100
C471	C47	0.508800	0.746200	0.730600
H831	H83	0.458300	0.757400	0.699300
H841	H84	0.585300	0.738300	0.715100
C481	C48	0.465200	0.684200	0.756500
O491	O49	0.253600	0.594890	0.749050
H851	H85	0.257600	0.633500	0.725100
O501	O50	0.243400	0.466600	0.743660
H861	H86	0.241200	0.429700	0.717700
O511	O51	0.361800	0.524600	0.830750
H871	H87	0.429700	0.521400	0.855500
O521	O52	0.125800	0.531500	0.829260
H881	H88	0.056100	0.532800	0.853000
O531	O53	0.353100	0.542400	0.640200
O541	O54	0.159200	0.541100	0.639200
O551	O55	0.244700	0.420100	0.443180
O561	O56	0.254200	0.527200	0.436830
O571	O57	0.013400	0.643200	0.744100
O581	O58	0.133000	0.701500	0.798300
O591	O59	0.912400	0.875700	0.707800
O601	O60	0.996200	0.928600	0.779100
O611	O61	0.523200	0.916700	0.757000
O621	O62	0.649800	0.855500	0.711300
O631	O63	0.494100	0.632900	0.733200
O641	O64	0.397500	0.688800	0.798300
