data_VARWIW_charged_PM
_symmetry_space_group_name_H-M	'P1'
_cell_length_a	11.561000
_cell_length_b	20.821100
_cell_length_c	23.690900
_cell_angle_alpha	90.000000
_cell_angle_beta	90.000000
_cell_angle_gamma	90.000000
_symmetry_Int_Tables_number 1

loop_
_symmetry_equiv_pos_as_xyz
'x,y,z'

loop_
_atom_site_label
_atom_site_type_symbol
_atom_site_fract_x
_atom_site_fract_y
_atom_site_fract_z
Sm11	Sm1	0.919870	0.036010	0.231200
Sm21	Sm2	0.582240	0.026510	0.234330
Sm31	Sm3	0.743860	0.123140	0.348380
Sm41	Sm4	0.765420	0.932660	0.343090
Sm51	Sm5	0.580130	0.963990	0.731200
Sm61	Sm6	0.917760	0.973490	0.734330
Sm71	Sm7	0.756140	0.876860	0.848380
Sm81	Sm8	0.734580	0.067340	0.843090
Sm91	Sm9	0.080130	0.536010	0.268800
Sm101	Sm10	0.417760	0.526510	0.265670
Sm111	Sm11	0.256140	0.623140	0.151620
Sm121	Sm12	0.234580	0.432660	0.156910
Sm131	Sm13	0.419870	0.463990	0.768800
Sm141	Sm14	0.082240	0.473490	0.765670
Sm151	Sm15	0.243860	0.376860	0.651620
Sm161	Sm16	0.265420	0.567340	0.656910
H11	H1	0.595800	0.352500	0.317700
H21	H2	0.628800	0.285300	0.313300
H31	H3	0.649900	0.328800	0.266400
H41	H4	0.434300	0.291300	0.302200
H51	H5	0.151300	0.281900	0.209100
H61	H6	0.160800	0.233700	0.253200
H71	H7	0.123100	0.215300	0.197000
H81	H8	0.541100	0.257600	0.199500
H91	H9	0.414300	0.238800	0.215400
H101	H10	0.862300	0.916200	0.493600
H111	H11	0.924200	0.942100	0.541900
H121	H12	0.868400	0.879700	0.545800
H131	H13	0.953800	0.269500	0.205500
H141	H14	0.912300	0.318500	0.293100
H151	H15	0.039800	0.305300	0.312000
H161	H16	0.687400	0.926200	0.538300
H171	H17	0.816900	0.042200	0.543200
H181	H18	0.681600	0.039500	0.543300
H191	H19	0.742900	0.133400	0.225300
H201	H20	0.760400	0.929700	0.217700
H211	H21	0.570300	0.020900	0.356000
H221	H22	0.944800	0.033200	0.353200
H231	H23	0.904200	0.647500	0.817700
H241	H24	0.871200	0.714700	0.813300
H251	H25	0.850100	0.671200	0.766400
H261	H26	0.065700	0.708700	0.802200
H271	H27	0.348700	0.718100	0.709100
H281	H28	0.339200	0.766300	0.753200
H291	H29	0.376900	0.784700	0.697000
H301	H30	0.958900	0.742400	0.699500
H311	H31	0.085700	0.761200	0.715400
H321	H32	0.637700	0.083800	0.993600
H331	H33	0.575800	0.057900	0.041900
H341	H34	0.631600	0.120300	0.045800
H351	H35	0.546200	0.730500	0.705500
H361	H36	0.587700	0.681500	0.793100
H371	H37	0.460200	0.694700	0.812000
H381	H38	0.812600	0.073800	0.038300
H391	H39	0.683100	0.957800	0.043200
H401	H40	0.818400	0.960500	0.043300
H411	H41	0.757100	0.866600	0.725300
H421	H42	0.739600	0.070300	0.717700
H431	H43	0.929700	0.979100	0.856000
H441	H44	0.555200	0.966800	0.853200
H451	H45	0.404200	0.852500	0.182300
H461	H46	0.371200	0.785300	0.186700
H471	H47	0.350100	0.828800	0.233600
H481	H48	0.565700	0.791300	0.197800
H491	H49	0.848700	0.781900	0.290900
H501	H50	0.839200	0.733700	0.246800
H511	H51	0.876900	0.715300	0.303000
H521	H52	0.458900	0.757600	0.300500
H531	H53	0.585700	0.738800	0.284600
H541	H54	0.137700	0.416200	0.006400
H551	H55	0.075800	0.442100	0.958100
H561	H56	0.131600	0.379700	0.954200
H571	H57	0.046200	0.769500	0.294500
H581	H58	0.087700	0.818500	0.206900
H591	H59	0.960200	0.805300	0.188000
H601	H60	0.312600	0.426200	0.961700
H611	H61	0.183100	0.542200	0.956800
H621	H62	0.318400	0.539500	0.956700
H631	H63	0.257100	0.633400	0.274700
H641	H64	0.239600	0.429700	0.282300
H651	H65	0.429700	0.520900	0.144000
H661	H66	0.055200	0.533200	0.146800
H671	H67	0.095800	0.147500	0.682300
H681	H68	0.128800	0.214700	0.686700
H691	H69	0.149900	0.171200	0.733600
H701	H70	0.934300	0.208700	0.697800
H711	H71	0.651300	0.218100	0.790900
H721	H72	0.660800	0.266300	0.746800
H731	H73	0.623100	0.284700	0.803000
H741	H74	0.041100	0.242400	0.800500
H751	H75	0.914300	0.261200	0.784600
H761	H76	0.362300	0.583800	0.506400
H771	H77	0.424200	0.557900	0.458100
H781	H78	0.368400	0.620300	0.454200
H791	H79	0.453800	0.230500	0.794500
H801	H80	0.412300	0.181500	0.706900
H811	H81	0.539800	0.194700	0.688000
H821	H82	0.187400	0.573800	0.461700
H831	H83	0.316900	0.457800	0.456800
H841	H84	0.181600	0.460500	0.456700
H851	H85	0.242900	0.366600	0.774700
H861	H86	0.260400	0.570300	0.782300
H871	H87	0.070300	0.479100	0.644000
H881	H88	0.444800	0.466800	0.646800
C11	C1	0.432300	0.363200	0.242900
C21	C2	0.484400	0.303300	0.270600
C31	C3	0.490900	0.246300	0.230800
C41	C4	0.533900	0.184500	0.256100
C51	C5	0.946300	0.195900	0.263600
C61	C6	0.997200	0.258200	0.239600
C71	C7	0.991100	0.314300	0.279600
C81	C8	0.028900	0.378100	0.253500
C91	C9	0.756800	0.954300	0.615800
C101	C10	0.755200	0.950400	0.551130
C111	C11	0.750700	0.018800	0.528700
C121	C12	0.750200	0.024200	0.465120
C131	C13	0.067700	0.636800	0.742900
C141	C14	0.015600	0.696700	0.770600
C151	C15	0.009100	0.753700	0.730800
C161	C16	0.966100	0.815500	0.756100
C171	C17	0.553700	0.804100	0.763600
C181	C18	0.502800	0.741800	0.739600
C191	C19	0.508900	0.685700	0.779600
C201	C20	0.471100	0.621900	0.753500
C211	C21	0.743200	0.045700	0.115800
C221	C22	0.744800	0.049600	0.051130
C231	C23	0.749300	0.981200	0.028700
C241	C24	0.749800	0.975800	0.965120
C251	C25	0.567700	0.863200	0.257100
C261	C26	0.515600	0.803300	0.229400
C271	C27	0.509100	0.746300	0.269200
C281	C28	0.466100	0.684500	0.243900
C291	C29	0.053700	0.695900	0.236400
C301	C30	0.002800	0.758200	0.260400
C311	C31	0.008900	0.814300	0.220400
C321	C32	0.971100	0.878100	0.246500
C331	C33	0.243200	0.454300	0.884200
C341	C34	0.244800	0.450400	0.948870
C351	C35	0.249300	0.518800	0.971300
C361	C36	0.249800	0.524200	0.034880
C371	C37	0.932300	0.136800	0.757100
C381	C38	0.984400	0.196700	0.729400
C391	C39	0.990900	0.253700	0.769200
C401	C40	0.033900	0.315500	0.743900
C411	C41	0.446300	0.304100	0.736400
C421	C42	0.497200	0.241800	0.760400
C431	C43	0.491100	0.185700	0.720400
C441	C44	0.528900	0.121900	0.746500
C451	C45	0.256800	0.545700	0.384200
C461	C46	0.255200	0.549600	0.448870
C471	C47	0.250700	0.481200	0.471300
C481	C48	0.250200	0.475800	0.534880
N11	N1	0.601700	0.319100	0.294400
N21	N2	0.120700	0.246000	0.223000
N31	N3	0.863400	0.918900	0.531100
N41	N4	0.898300	0.680900	0.794400
N51	N5	0.379300	0.754000	0.723000
N61	N6	0.636600	0.081100	0.031100
N71	N7	0.398300	0.819100	0.205600
N81	N8	0.879300	0.746000	0.277000
N91	N9	0.136600	0.418900	0.968900
N101	N10	0.101700	0.180900	0.705600
N111	N11	0.620700	0.254000	0.777000
N121	N12	0.363400	0.581100	0.468900
O11	O1	0.747100	0.094980	0.249070
O21	O2	0.757900	0.966460	0.243580
O31	O3	0.638000	0.024140	0.331260
O41	O4	0.875200	0.031790	0.329640
O51	O5	0.479000	0.415930	0.255300
O61	O6	0.349100	0.354600	0.211260
O71	O7	0.600100	0.188200	0.298450
O81	O8	0.504100	0.133100	0.233100
O91	O9	0.987600	0.144000	0.244800
O101	O10	0.867700	0.201900	0.298300
O111	O11	0.001200	0.428300	0.279500
O121	O12	0.085100	0.376100	0.208200
O131	O13	0.854200	0.955700	0.639790
O141	O14	0.660300	0.958500	0.638510
O151	O15	0.754300	0.973270	0.437610
O161	O16	0.744100	0.079570	0.444530
O171	O17	0.114400	0.032400	0.280000
O181	O18	0.075600	0.052600	0.157500
O191	O19	0.399600	0.027700	0.293400
O201	O20	0.415200	0.014400	0.169500
O211	O21	0.933700	0.143000	0.401300
O221	O22	0.733000	0.229100	0.396900
O231	O23	0.551200	0.135000	0.399700
O241	O24	0.575200	0.903900	0.393000
O251	O25	0.786600	0.822500	0.387000
O261	O26	0.954800	0.917900	0.403000
O271	O27	0.752900	0.905020	0.749070
O281	O28	0.742100	0.033540	0.743580
O291	O29	0.862000	0.975860	0.831260
O301	O30	0.624800	0.968210	0.829640
O311	O31	0.021000	0.584070	0.755300
O321	O32	0.150900	0.645400	0.711260
O331	O33	0.899900	0.811800	0.798450
O341	O34	0.995900	0.866900	0.733100
O351	O35	0.512400	0.856000	0.744800
O361	O36	0.632300	0.798100	0.798300
O371	O37	0.498800	0.571700	0.779500
O381	O38	0.414900	0.623900	0.708200
O391	O39	0.645800	0.044300	0.139790
O401	O40	0.839700	0.041500	0.138510
O411	O41	0.745700	0.026730	0.937610
O421	O42	0.755900	0.920430	0.944530
O431	O43	0.385600	0.967600	0.780000
O441	O44	0.424400	0.947400	0.657500
O451	O45	0.100400	0.972300	0.793400
O461	O46	0.084800	0.985600	0.669500
O471	O47	0.566300	0.857000	0.901300
O481	O48	0.767000	0.770900	0.896900
O491	O49	0.948800	0.865000	0.899700
O501	O50	0.924800	0.096100	0.893000
O511	O51	0.713400	0.177500	0.887000
O521	O52	0.545200	0.082100	0.903000
O531	O53	0.252900	0.594980	0.250930
O541	O54	0.242100	0.466460	0.256420
O551	O55	0.362000	0.524140	0.168740
O561	O56	0.124800	0.531790	0.170360
O571	O57	0.521000	0.915930	0.244700
O581	O58	0.650900	0.854600	0.288740
O591	O59	0.399900	0.688200	0.201550
O601	O60	0.495900	0.633100	0.266900
O611	O61	0.012400	0.644000	0.255200
O621	O62	0.132300	0.701900	0.201700
O631	O63	0.998800	0.928300	0.220500
O641	O64	0.914900	0.876100	0.291800
O651	O65	0.145800	0.455700	0.860210
O661	O66	0.339700	0.458500	0.861490
O671	O67	0.245700	0.473270	0.062390
O681	O68	0.255900	0.579570	0.055470
O691	O69	0.885600	0.532400	0.220000
O701	O70	0.924400	0.552600	0.342500
O711	O71	0.600400	0.527700	0.206600
O721	O72	0.584800	0.514400	0.330500
O731	O73	0.066300	0.643000	0.098700
O741	O74	0.267000	0.729100	0.103100
O751	O75	0.448800	0.635000	0.100300
O761	O76	0.424800	0.403900	0.107000
O771	O77	0.213400	0.322500	0.113000
O781	O78	0.045200	0.417900	0.097000
O791	O79	0.247100	0.405020	0.750930
O801	O80	0.257900	0.533540	0.756420
O811	O81	0.138000	0.475860	0.668740
O821	O82	0.375200	0.468210	0.670360
O831	O83	0.979000	0.084070	0.744700
O841	O84	0.849100	0.145400	0.788740
O851	O85	0.100100	0.311800	0.701550
O861	O86	0.004100	0.366900	0.766900
O871	O87	0.487600	0.356000	0.755200
O881	O88	0.367700	0.298100	0.701700
O891	O89	0.501200	0.071700	0.720500
O901	O90	0.585100	0.123900	0.791800
O911	O91	0.354200	0.544300	0.360210
O921	O92	0.160300	0.541500	0.361490
O931	O93	0.254300	0.526730	0.562390
O941	O94	0.244100	0.420430	0.555470
O951	O95	0.614400	0.467600	0.720000
O961	O96	0.575600	0.447400	0.842500
O971	O97	0.899600	0.472300	0.706600
O981	O98	0.915200	0.485600	0.830500
O991	O99	0.433700	0.357000	0.598700
O1001	O100	0.233000	0.270900	0.603100
O1011	O101	0.051200	0.365000	0.600300
O1021	O102	0.075200	0.596100	0.607000
O1031	O103	0.286600	0.677500	0.613000
O1041	O104	0.454800	0.582100	0.597000
Cl11	Cl1	0.746100	0.370880	0.155330
O1051	O105	0.751600	0.438000	0.149700
O1061	O106	0.783200	0.369100	0.212900
O1071	O107	0.638400	0.346800	0.142000
O1081	O108	0.830200	0.344700	0.119300
Cl21	Cl2	0.246930	0.180730	0.361270
O1091	O109	0.247200	0.113800	0.355000
O1101	O110	0.140400	0.210900	0.364200
O1111	O111	0.268800	0.206000	0.307000
O1121	O112	0.334500	0.211700	0.391300
Cl31	Cl3	0.988600	0.212980	0.049860
O1131	O113	0.017300	0.186300	0.102000
O1141	O114	0.016200	0.278900	0.050500
O1151	O115	0.043400	0.186600	0.001800
O1161	O116	0.868000	0.203400	0.044300
Cl41	Cl4	0.405400	0.013960	0.497660
O1171	O117	0.342800	0.025000	0.548400
O1181	O118	0.319500	0.007300	0.457900
O1191	O119	0.476900	0.066600	0.488700
O1201	O120	0.476500	0.961800	0.507900
Cl51	Cl5	0.471200	0.851950	0.052440
O1211	O121	0.513900	0.876500	0.105000
O1221	O122	0.354900	0.876500	0.059900
O1231	O123	0.475200	0.784000	0.062900
O1241	O124	0.510500	0.897200	0.010400
Cl61	Cl6	0.753900	0.629120	0.655330
O1251	O125	0.748400	0.562000	0.649700
O1261	O126	0.716800	0.630900	0.712900
O1271	O127	0.861600	0.653200	0.642000
O1281	O128	0.669800	0.655300	0.619300
Cl71	Cl7	0.253070	0.819270	0.861270
O1291	O129	0.252800	0.886200	0.855000
O1301	O130	0.359600	0.789100	0.864200
O1311	O131	0.231200	0.794000	0.807000
O1321	O132	0.165500	0.788300	0.891300
Cl81	Cl8	0.511400	0.787020	0.549860
O1331	O133	0.482700	0.813700	0.602000
O1341	O134	0.483800	0.721100	0.550500
O1351	O135	0.456600	0.813400	0.501800
O1361	O136	0.632000	0.796600	0.544300
Cl91	Cl9	0.094600	0.986040	0.997660
O1371	O137	0.157200	0.975000	0.048400
O1381	O138	0.180500	0.992700	0.957900
O1391	O139	0.023100	0.933400	0.988700
O1401	O140	0.023500	0.038200	0.007900
Cl101	Cl10	0.028800	0.148050	0.552440
O1411	O141	0.986100	0.123500	0.605000
O1421	O142	0.145100	0.123500	0.559900
O1431	O143	0.024800	0.216000	0.562900
O1441	O144	0.989500	0.102800	0.510400
Cl111	Cl11	0.253900	0.870880	0.344670
O1451	O145	0.248400	0.938000	0.350300
O1461	O146	0.216800	0.869100	0.287100
O1471	O147	0.361600	0.846800	0.358000
O1481	O148	0.169800	0.844700	0.380700
Cl121	Cl12	0.753070	0.680730	0.138730
O1491	O149	0.752800	0.613800	0.145000
O1501	O150	0.859600	0.710900	0.135800
O1511	O151	0.731200	0.706000	0.193000
O1521	O152	0.665500	0.711700	0.108700
Cl131	Cl13	0.011400	0.712980	0.450140
O1531	O153	0.982700	0.686300	0.398000
O1541	O154	0.983800	0.778900	0.449500
O1551	O155	0.956600	0.686600	0.498200
O1561	O156	0.132000	0.703400	0.455700
Cl141	Cl14	0.594600	0.513960	0.002340
O1571	O157	0.657200	0.525000	0.951600
O1581	O158	0.680500	0.507300	0.042100
O1591	O159	0.523100	0.566600	0.011300
O1601	O160	0.523500	0.461800	0.992100
Cl151	Cl15	0.528800	0.351950	0.447560
O1611	O161	0.486100	0.376500	0.395000
O1621	O162	0.645100	0.376500	0.440100
O1631	O163	0.524800	0.284000	0.437100
O1641	O164	0.489500	0.397200	0.489600
Cl161	Cl16	0.246100	0.129120	0.844670
O1651	O165	0.251600	0.062000	0.850300
O1661	O166	0.283200	0.130900	0.787100
O1671	O167	0.138400	0.153200	0.858000
O1681	O168	0.330200	0.155300	0.880700
Cl171	Cl17	0.746930	0.319270	0.638730
O1691	O169	0.747200	0.386200	0.645000
O1701	O170	0.640400	0.289100	0.635800
O1711	O171	0.768800	0.294000	0.693000
O1721	O172	0.834500	0.288300	0.608700
Cl181	Cl18	0.488600	0.287020	0.950140
O1731	O173	0.517300	0.313700	0.898000
O1741	O174	0.516200	0.221100	0.949500
O1751	O175	0.543400	0.313400	0.998200
O1761	O176	0.368000	0.296600	0.955700
Cl191	Cl19	0.905400	0.486040	0.502340
O1771	O177	0.842800	0.475000	0.451600
O1781	O178	0.819500	0.492700	0.542100
O1791	O179	0.976900	0.433400	0.511300
O1801	O180	0.976500	0.538200	0.492100
Cl201	Cl20	0.971200	0.648050	0.947560
O1811	O181	0.013900	0.623500	0.895000
O1821	O182	0.854900	0.623500	0.940100
O1831	O183	0.975200	0.716000	0.937100
O1841	O184	0.010500	0.602800	0.989600
