data_VARWES_charged_PM
_symmetry_space_group_name_H-M	'P1'
_cell_length_a	11.567500
_cell_length_b	20.924000
_cell_length_c	23.799300
_cell_angle_alpha	90.000000
_cell_angle_beta	90.000000
_cell_angle_gamma	90.000000
_symmetry_Int_Tables_number 1

loop_
_symmetry_equiv_pos_as_xyz
'x,y,z'

loop_
_atom_site_label
_atom_site_type_symbol
_atom_site_fract_x
_atom_site_fract_y
_atom_site_fract_z
Nd11	Nd1	0.421590	0.036390	0.731020
Nd21	Nd2	0.243650	0.123800	0.849520
Nd31	Nd3	0.080070	0.026350	0.734180
Nd41	Nd4	0.265690	0.932240	0.844010
Nd51	Nd5	0.078410	0.963610	0.231020
Nd61	Nd6	0.256350	0.876200	0.349520
Nd71	Nd7	0.419930	0.973650	0.234180
Nd81	Nd8	0.234310	0.067760	0.344010
Nd91	Nd9	0.578410	0.536390	0.768980
Nd101	Nd10	0.756350	0.623800	0.650480
Nd111	Nd11	0.919930	0.526350	0.765820
Nd121	Nd12	0.734310	0.432240	0.655990
Nd131	Nd13	0.921590	0.463610	0.268980
Nd141	Nd14	0.743650	0.376200	0.150480
Nd151	Nd15	0.580070	0.473650	0.265820
Nd161	Nd16	0.765690	0.567760	0.155990
H11	H1	0.350100	0.783000	0.790900
H21	H2	0.339400	0.733700	0.748100
H31	H3	0.379400	0.717200	0.804200
H41	H4	0.902800	0.852600	0.683700
H51	H5	0.870300	0.785700	0.688100
H61	H6	0.850600	0.828700	0.735100
H71	H7	0.587700	0.817900	0.707300
H81	H8	0.460100	0.805000	0.688600
H91	H9	0.547600	0.770000	0.793200
H101	H10	0.364600	0.917000	0.993200
H111	H11	0.426700	0.941400	0.041700
H121	H12	0.370700	0.879300	0.044400
H131	H13	0.066400	0.792000	0.698000
H141	H14	0.955400	0.756700	0.799400
H151	H15	0.083700	0.739000	0.785800
H161	H16	0.180300	0.037400	0.044700
H171	H17	0.315300	0.041400	0.044900
H181	H18	0.188900	0.925800	0.038700
H191	H19	0.260100	0.930200	0.718100
H201	H20	0.241900	0.133600	0.726000
H211	H21	0.068500	0.020900	0.856300
H221	H22	0.445700	0.033400	0.853700
H231	H23	0.149900	0.217000	0.290900
H241	H24	0.160600	0.266300	0.248100
H251	H25	0.120600	0.282800	0.304200
H261	H26	0.597200	0.147400	0.183700
H271	H27	0.629700	0.214300	0.188100
H281	H28	0.649400	0.171300	0.235100
H291	H29	0.912300	0.182100	0.207300
H301	H30	0.039900	0.195000	0.188600
H311	H31	0.952400	0.230000	0.293200
H321	H32	0.135400	0.083000	0.493200
H331	H33	0.073300	0.058600	0.541700
H341	H34	0.129300	0.120700	0.544400
H351	H35	0.433600	0.208000	0.198000
H361	H36	0.544600	0.243300	0.299400
H371	H37	0.416300	0.261000	0.285800
H381	H38	0.319700	0.962600	0.544700
H391	H39	0.184700	0.958600	0.544900
H401	H40	0.311100	0.074200	0.538700
H411	H41	0.239900	0.069800	0.218100
H421	H42	0.258100	0.866400	0.226000
H431	H43	0.431500	0.979100	0.356300
H441	H44	0.054300	0.966600	0.353700
H451	H45	0.649900	0.283000	0.709100
H461	H46	0.660600	0.233700	0.751900
H471	H47	0.620600	0.217200	0.695800
H481	H48	0.097200	0.352600	0.816300
H491	H49	0.129700	0.285700	0.811900
H501	H50	0.149400	0.328700	0.764900
H511	H51	0.412300	0.317900	0.792700
H521	H52	0.539900	0.305000	0.811400
H531	H53	0.452400	0.270000	0.706800
H541	H54	0.635400	0.417000	0.506800
H551	H55	0.573300	0.441400	0.458300
H561	H56	0.629300	0.379300	0.455600
H571	H57	0.933600	0.292000	0.802000
H581	H58	0.044600	0.256700	0.700600
H591	H59	0.916300	0.239000	0.714200
H601	H60	0.819700	0.537400	0.455300
H611	H61	0.684700	0.541400	0.455100
H621	H62	0.811100	0.425800	0.461300
H631	H63	0.739900	0.430200	0.781900
H641	H64	0.758100	0.633600	0.774000
H651	H65	0.931500	0.520900	0.643700
H661	H66	0.554300	0.533400	0.646300
H671	H67	0.850100	0.717000	0.209100
H681	H68	0.839400	0.766300	0.251900
H691	H69	0.879400	0.782800	0.195800
H701	H70	0.402800	0.647400	0.316300
H711	H71	0.370300	0.714300	0.311900
H721	H72	0.350600	0.671300	0.264900
H731	H73	0.087700	0.682100	0.292700
H741	H74	0.960100	0.695000	0.311400
H751	H75	0.047600	0.730000	0.206800
H761	H76	0.864600	0.583000	0.006800
H771	H77	0.926700	0.558600	0.958300
H781	H78	0.870700	0.620700	0.955600
H791	H79	0.566400	0.708000	0.302000
H801	H80	0.455400	0.743300	0.200600
H811	H81	0.583700	0.761000	0.214200
H821	H82	0.680300	0.462600	0.955300
H831	H83	0.815300	0.458600	0.955100
H841	H84	0.688900	0.574200	0.961300
H851	H85	0.760100	0.569800	0.281900
H861	H86	0.741900	0.366400	0.274000
H871	H87	0.568500	0.479100	0.143700
H881	H88	0.945700	0.466600	0.146300
C11	C1	0.472200	0.878200	0.746000
C21	C2	0.508900	0.814000	0.720800
C31	C3	0.503000	0.759000	0.759600
C41	C4	0.551600	0.696600	0.736200
C51	C5	0.066700	0.863200	0.757900
C61	C6	0.016300	0.803600	0.729600
C71	C7	0.008200	0.746100	0.769200
C81	C8	0.968700	0.684900	0.742800
C91	C9	0.249900	0.024400	0.966600
C101	C10	0.250000	0.017800	0.030000
C111	C11	0.256500	0.950000	0.051400
C121	C12	0.258900	0.952900	0.115400
C131	C13	0.027800	0.121800	0.246000
C141	C14	0.991100	0.186000	0.220800
C151	C15	0.997000	0.241000	0.259600
C161	C16	0.948400	0.303400	0.236200
C171	C17	0.433300	0.136800	0.257900
C181	C18	0.483700	0.196400	0.229600
C191	C19	0.491800	0.253900	0.269200
C201	C20	0.531300	0.315100	0.242800
C211	C21	0.250100	0.975600	0.466600
C221	C22	0.250000	0.982200	0.530000
C231	C23	0.243500	0.050000	0.551400
C241	C24	0.241100	0.047100	0.615400
C251	C25	0.527800	0.378200	0.754000
C261	C26	0.491100	0.314000	0.779200
C271	C27	0.497000	0.259000	0.740400
C281	C28	0.448400	0.196600	0.763800
C291	C29	0.933300	0.363200	0.742100
C301	C30	0.983700	0.303600	0.770400
C311	C31	0.991800	0.246100	0.730800
C321	C32	0.031300	0.184900	0.757200
C331	C33	0.750100	0.524400	0.533400
C341	C34	0.750000	0.517800	0.470000
C351	C35	0.743500	0.450000	0.448600
C361	C36	0.741100	0.452900	0.384600
C371	C37	0.972200	0.621800	0.254000
C381	C38	0.008900	0.686000	0.279200
C391	C39	0.003000	0.741000	0.240400
C401	C40	0.051600	0.803400	0.263800
C411	C41	0.566700	0.636800	0.242100
C421	C42	0.516300	0.696400	0.270400
C431	C43	0.508200	0.753900	0.230800
C441	C44	0.468700	0.815100	0.257200
C451	C45	0.749900	0.475600	0.033400
C461	C46	0.750000	0.482200	0.970000
C471	C47	0.756500	0.550000	0.948600
C481	C48	0.758900	0.547100	0.884600
N11	N1	0.380500	0.747000	0.777500
N21	N2	0.897900	0.819300	0.706800
N31	N3	0.365900	0.918700	0.030600
N41	N4	0.119500	0.253000	0.277500
N51	N5	0.602100	0.180700	0.206800
N61	N6	0.134100	0.081300	0.530600
N71	N7	0.619500	0.247000	0.722500
N81	N8	0.102100	0.319300	0.793200
N91	N9	0.634100	0.418700	0.469400
N101	N10	0.880500	0.753000	0.222500
N111	N11	0.397900	0.680700	0.293200
N121	N12	0.865900	0.581300	0.969400
O11	O1	0.257500	0.966730	0.743840
O21	O2	0.246400	0.095300	0.749600
O31	O3	0.136200	0.024200	0.831760
O41	O4	0.376100	0.031900	0.830220
O51	O5	0.500800	0.927400	0.720600
O61	O6	0.419000	0.876500	0.791800
O71	O7	0.510900	0.645600	0.754200
O81	O8	0.631200	0.702400	0.701100
O91	O9	0.150600	0.854100	0.789100
O101	O10	0.021400	0.915300	0.746300
O111	O11	0.998800	0.633800	0.764900
O121	O12	0.902100	0.688700	0.701100
O131	O13	0.255000	0.973900	0.938370
O141	O14	0.242600	0.079900	0.946600
O151	O15	0.160700	0.958300	0.138500
O161	O16	0.354200	0.953600	0.138900
O171	O17	0.617000	0.032900	0.780300
O181	O18	0.578500	0.054300	0.656300
O191	O19	0.233200	0.230600	0.898100
O201	O20	0.434300	0.143700	0.902600
O211	O21	0.049700	0.136500	0.901500
O221	O22	0.896300	0.027600	0.794600
O231	O23	0.910900	0.014100	0.668900
O241	O24	0.456600	0.917100	0.904000
O251	O25	0.288200	0.820000	0.887400
O261	O26	0.075500	0.903800	0.894900
O271	O27	0.242500	0.033270	0.243840
O281	O28	0.253600	0.904700	0.249600
O291	O29	0.363800	0.975800	0.331760
O301	O30	0.123900	0.968100	0.330220
O311	O31	0.999200	0.072600	0.220600
O321	O32	0.081000	0.123500	0.291800
O331	O33	0.989100	0.354400	0.254200
O341	O34	0.868800	0.297600	0.201100
O351	O35	0.349400	0.145900	0.289100
O361	O36	0.478600	0.084700	0.246300
O371	O37	0.501200	0.366200	0.264900
O381	O38	0.597900	0.311300	0.201100
O391	O39	0.245000	0.026100	0.438370
O401	O40	0.257400	0.920100	0.446600
O411	O41	0.339300	0.041700	0.638500
O421	O42	0.145800	0.046400	0.638900
O431	O43	0.883000	0.967100	0.280300
O441	O44	0.921500	0.945700	0.156300
O451	O45	0.266800	0.769400	0.398100
O461	O46	0.065700	0.856300	0.402600
O471	O47	0.450300	0.863500	0.401500
O481	O48	0.603700	0.972400	0.294600
O491	O49	0.589100	0.985900	0.168900
O501	O50	0.043400	0.082900	0.404000
O511	O51	0.211800	0.180000	0.387400
O521	O52	0.424500	0.096200	0.394900
O531	O53	0.742500	0.466730	0.756160
O541	O54	0.753600	0.595300	0.750400
O551	O55	0.863800	0.524200	0.668240
O561	O56	0.623900	0.531900	0.669780
O571	O57	0.499200	0.427400	0.779400
O581	O58	0.581000	0.376500	0.708200
O591	O59	0.489100	0.145600	0.745800
O601	O60	0.368800	0.202400	0.798900
O611	O61	0.849400	0.354100	0.710900
O621	O62	0.978600	0.415300	0.753700
O631	O63	0.001200	0.133800	0.735100
O641	O64	0.097900	0.188700	0.798900
O651	O65	0.745000	0.473900	0.561630
O661	O66	0.757400	0.579900	0.553400
O671	O67	0.839300	0.458300	0.361500
O681	O68	0.645800	0.453600	0.361100
O691	O69	0.383000	0.532900	0.719700
O701	O70	0.421500	0.554300	0.843700
O711	O71	0.766800	0.730600	0.601900
O721	O72	0.565700	0.643700	0.597400
O731	O73	0.950300	0.636500	0.598500
O741	O74	0.103700	0.527600	0.705400
O751	O75	0.089100	0.514100	0.831100
O761	O76	0.543400	0.417100	0.596000
O771	O77	0.711800	0.320000	0.612600
O781	O78	0.924500	0.403800	0.605100
O791	O79	0.757500	0.533270	0.256160
O801	O80	0.746400	0.404700	0.250400
O811	O81	0.636200	0.475800	0.168240
O821	O82	0.876100	0.468100	0.169780
O831	O83	0.000800	0.572600	0.279400
O841	O84	0.919000	0.623500	0.208200
O851	O85	0.010900	0.854400	0.245800
O861	O86	0.131200	0.797600	0.298900
O871	O87	0.650600	0.645900	0.210900
O881	O88	0.521400	0.584700	0.253700
O891	O89	0.498800	0.866200	0.235100
O901	O90	0.402100	0.811300	0.298900
O911	O91	0.755000	0.526100	0.061630
O921	O92	0.742600	0.420100	0.053400
O931	O93	0.660700	0.541700	0.861500
O941	O94	0.854200	0.546400	0.861100
O951	O95	0.117000	0.467100	0.219700
O961	O96	0.078500	0.445700	0.343700
O971	O97	0.733200	0.269400	0.101900
O981	O98	0.934300	0.356300	0.097400
O991	O99	0.549700	0.363500	0.098500
O1001	O100	0.396300	0.472400	0.205400
O1011	O101	0.410900	0.485900	0.331100
O1021	O102	0.956600	0.582900	0.096000
O1031	O103	0.788200	0.680000	0.112600
O1041	O104	0.575500	0.596200	0.105100
Cl11	Cl1	0.487700	0.212190	0.550210
O1051	O105	0.512200	0.187300	0.602800
O1061	O106	0.514700	0.277300	0.548700
O1071	O107	0.369000	0.203500	0.543100
O1081	O108	0.542300	0.184200	0.503900
Cl21	Cl2	0.746500	0.182460	0.860820
O1091	O109	0.748700	0.116000	0.856500
O1101	O110	0.786100	0.204400	0.808900
O1111	O111	0.789000	0.194300	0.914700
O1121	O112	0.639900	0.210400	0.868500
Cl31	Cl3	0.753900	0.870350	0.845250
O1131	O113	0.746700	0.936500	0.852100
O1141	O114	0.861200	0.846700	0.859900
O1151	O115	0.725200	0.851600	0.790700
O1161	O116	0.665900	0.844300	0.878600
Cl41	Cl4	0.905900	0.014040	0.997250
O1171	O117	0.985000	0.963600	0.006500
O1181	O118	0.984000	0.064600	0.986700
O1191	O119	0.846000	0.018400	0.049400
O1201	O120	0.806000	0.005300	0.963800
Cl51	Cl5	0.968600	0.853400	0.552680
O1211	O121	0.012800	0.874200	0.604900
O1221	O122	0.009200	0.898400	0.512400
O1231	O123	0.924000	0.798900	0.525000
O1241	O124	0.856300	0.879900	0.560300
Cl61	Cl6	0.012300	0.787810	0.050210
O1251	O125	0.987800	0.812700	0.102800
O1261	O126	0.985300	0.722700	0.048700
O1271	O127	0.131000	0.796500	0.043100
O1281	O128	0.957700	0.815800	0.003900
Cl71	Cl7	0.753500	0.817540	0.360820
O1291	O129	0.751300	0.884000	0.356500
O1301	O130	0.713900	0.795600	0.308900
O1311	O131	0.711000	0.805700	0.414700
O1321	O132	0.860100	0.789600	0.368500
Cl81	Cl8	0.746100	0.129650	0.345250
O1331	O133	0.753300	0.063500	0.352100
O1341	O134	0.638800	0.153300	0.359900
O1351	O135	0.774800	0.148400	0.290700
O1361	O136	0.834100	0.155700	0.378600
Cl91	Cl9	0.594100	0.985960	0.497250
O1371	O137	0.515000	0.036400	0.506500
O1381	O138	0.516000	0.935400	0.486700
O1391	O139	0.654000	0.981600	0.549400
O1401	O140	0.694000	0.994700	0.463800
Cl101	Cl10	0.531400	0.146600	0.052680
O1411	O141	0.487200	0.125800	0.104900
O1421	O142	0.490800	0.101600	0.012400
O1431	O143	0.576000	0.201100	0.025000
O1441	O144	0.643700	0.120100	0.060300
Cl111	Cl11	0.512300	0.712190	0.949790
O1451	O145	0.487800	0.687300	0.897200
O1461	O146	0.485300	0.777300	0.951300
O1471	O147	0.631000	0.703500	0.956900
O1481	O148	0.457700	0.684200	0.996100
Cl121	Cl12	0.253500	0.682460	0.639180
O1491	O149	0.251300	0.616000	0.643500
O1501	O150	0.213900	0.704400	0.691100
O1511	O151	0.211000	0.694300	0.585300
O1521	O152	0.360100	0.710400	0.631500
Cl131	Cl13	0.246100	0.370350	0.654750
O1531	O153	0.253300	0.436500	0.647900
O1541	O154	0.138800	0.346700	0.640100
O1551	O155	0.274800	0.351600	0.709300
O1561	O156	0.334100	0.344300	0.621400
Cl141	Cl14	0.094100	0.514040	0.502750
O1571	O157	0.015000	0.463600	0.493500
O1581	O158	0.016000	0.564600	0.513300
O1591	O159	0.154000	0.518400	0.450600
O1601	O160	0.194000	0.505300	0.536200
Cl151	Cl15	0.031400	0.353400	0.947320
O1611	O161	0.987200	0.374200	0.895100
O1621	O162	0.990800	0.398400	0.987600
O1631	O163	0.076000	0.298900	0.975000
O1641	O164	0.143700	0.379900	0.939700
Cl161	Cl16	0.987700	0.287810	0.449790
O1651	O165	0.012200	0.312700	0.397200
O1661	O166	0.014700	0.222700	0.451300
O1671	O167	0.869000	0.296500	0.456900
O1681	O168	0.042300	0.315800	0.496100
Cl171	Cl17	0.246500	0.317540	0.139180
O1691	O169	0.248700	0.384000	0.143500
O1701	O170	0.286100	0.295600	0.191100
O1711	O171	0.289000	0.305700	0.085300
O1721	O172	0.139900	0.289600	0.131500
Cl181	Cl18	0.253900	0.629650	0.154750
O1731	O173	0.246700	0.563500	0.147900
O1741	O174	0.361200	0.653300	0.140100
O1751	O175	0.225200	0.648400	0.209300
O1761	O176	0.165900	0.655700	0.121400
Cl191	Cl19	0.405900	0.485960	0.002750
O1771	O177	0.485000	0.536400	0.993500
O1781	O178	0.484000	0.435400	0.013300
O1791	O179	0.346000	0.481600	0.950600
O1801	O180	0.306000	0.494700	0.036200
Cl201	Cl20	0.468600	0.646600	0.447320
O1811	O181	0.512800	0.625800	0.395100
O1821	O182	0.509200	0.601600	0.487600
O1831	O183	0.424000	0.701100	0.475000
O1841	O184	0.356300	0.620100	0.439700
