data_VASFON_clean_PM
_symmetry_space_group_name_H-M	'P1'
_cell_length_a	6.073600
_cell_length_b	10.491200
_cell_length_c	13.579000
_cell_angle_alpha	72.133000
_cell_angle_beta	89.023000
_cell_angle_gamma	89.009000
_symmetry_Int_Tables_number 1

loop_
_symmetry_equiv_pos_as_xyz
'x,y,z'

loop_
_atom_site_label
_atom_site_type_symbol
_atom_site_fract_x
_atom_site_fract_y
_atom_site_fract_z
Nd11	Nd1	0.250940	0.660190	0.708380
N11	N1	0.078400	0.886400	0.575400
N21	N2	0.433700	0.556800	0.897900
N31	N3	0.090200	0.572600	0.559100
O11	O1	0.454100	0.770300	0.547000
O21	O2	0.063600	0.699500	0.855300
O31	O3	0.848200	0.641300	0.699300
O41	O4	0.559800	0.524200	0.675800
C11	C1	0.187100	0.939300	0.486200
C21	C2	0.891600	0.947200	0.589300
C31	C3	0.316700	0.574200	0.977000
C41	C4	0.617000	0.481800	0.921300
C51	C5	0.884100	0.529000	0.574400
C61	C6	0.206500	0.543900	0.484400
C71	C7	0.399700	0.869000	0.472300
C81	C8	0.109800	0.658000	0.949800
C91	C9	0.754000	0.568100	0.657100
H11	H1	0.811900	0.913300	0.650600
H21	H2	0.701900	0.466800	0.868200
H31	H3	0.350800	0.573100	0.471400
O51	O5	0.503900	0.912300	0.389700
O61	O6	0.998800	0.680500	0.020100
Nd21	Nd2	0.749060	0.339810	0.291620
N41	N4	0.921600	0.113600	0.424600
N51	N5	0.566300	0.443200	0.102100
N61	N6	0.909800	0.427400	0.440900
O71	O7	0.545900	0.229700	0.453000
O81	O8	0.936400	0.300500	0.144700
O91	O9	0.151800	0.358700	0.300700
O101	O10	0.440200	0.475800	0.324200
C101	C10	0.812900	0.060700	0.513800
C111	C11	0.108400	0.052800	0.410700
C121	C12	0.683300	0.425800	0.023000
C131	C13	0.383000	0.518200	0.078700
C141	C14	0.115900	0.471000	0.425600
C151	C15	0.793500	0.456100	0.515600
C161	C16	0.600300	0.131000	0.527700
C171	C17	0.890200	0.342000	0.050200
C181	C18	0.246000	0.431900	0.342900
H41	H4	0.188100	0.086700	0.349400
H51	H5	0.298100	0.533200	0.131800
H61	H6	0.649200	0.426900	0.528600
O111	O11	0.496100	0.087700	0.610300
O121	O12	0.001200	0.319500	0.979900
