data_VASFAZ_clean_PM
_symmetry_space_group_name_H-M	'P1'
_cell_length_a	6.099000
_cell_length_b	10.501000
_cell_length_c	13.688000
_cell_angle_alpha	72.607000
_cell_angle_beta	88.789000
_cell_angle_gamma	88.980000
_symmetry_Int_Tables_number 1

loop_
_symmetry_equiv_pos_as_xyz
'x,y,z'

loop_
_atom_site_label
_atom_site_type_symbol
_atom_site_fract_x
_atom_site_fract_y
_atom_site_fract_z
Ce11	Ce1	0.748600	0.338980	0.290690
C11	C1	0.600700	0.131300	0.526900
C21	C2	0.108900	0.051700	0.411600
H11	H1	0.189400	0.085300	0.351100
O11	O1	0.545800	0.228400	0.452900
O21	O2	0.497400	0.089400	0.609700
O31	O3	0.937600	0.302400	0.141600
O41	O4	0.001500	0.321100	0.977800
N11	N1	0.565600	0.443700	0.100500
N21	N2	0.921400	0.111900	0.424900
C31	C3	0.813300	0.060300	0.513600
C41	C4	0.682600	0.426200	0.022300
C51	C5	0.890800	0.343000	0.048100
C61	C6	0.382600	0.517700	0.078300
H21	H2	0.297100	0.531900	0.131200
O51	O5	0.439000	0.477400	0.325100
O61	O6	0.155400	0.358900	0.301100
C71	C7	0.247500	0.432600	0.343300
C81	C8	0.116600	0.471000	0.425700
N31	N3	0.910200	0.427300	0.441300
C91	C9	0.794600	0.455800	0.515600
H31	H3	0.651000	0.426200	0.528600
Ce21	Ce2	0.251400	0.661020	0.709310
C101	C10	0.399300	0.868700	0.473100
C111	C11	0.891100	0.948300	0.588400
H41	H4	0.810600	0.914700	0.648900
O71	O7	0.454200	0.771600	0.547100
O81	O8	0.502600	0.910600	0.390300
O91	O9	0.062400	0.697600	0.858400
O101	O10	0.998500	0.678900	0.022200
N41	N4	0.434400	0.556300	0.899500
N51	N5	0.078600	0.888100	0.575100
C121	C12	0.186700	0.939700	0.486400
C131	C13	0.317400	0.573800	0.977700
C141	C14	0.109200	0.657000	0.951900
C151	C15	0.617400	0.482300	0.921700
H51	H5	0.702900	0.468100	0.868800
O111	O11	0.561000	0.522600	0.674900
O121	O12	0.844600	0.641100	0.698900
C161	C16	0.752500	0.567400	0.656700
C171	C17	0.883400	0.529000	0.574300
N61	N6	0.089800	0.572700	0.558700
C181	C18	0.205400	0.544200	0.484400
H61	H6	0.349000	0.573800	0.471400
