data_VASGUU_clean_PM
_symmetry_space_group_name_H-M	'P1'
_cell_length_a	15.672900
_cell_length_b	23.599000
_cell_length_c	18.217400
_cell_angle_alpha	90.000000
_cell_angle_beta	105.446000
_cell_angle_gamma	90.000000
_symmetry_Int_Tables_number 1

loop_
_symmetry_equiv_pos_as_xyz
'x,y,z'

loop_
_atom_site_label
_atom_site_type_symbol
_atom_site_fract_x
_atom_site_fract_y
_atom_site_fract_z
In11	In1	0.290020	0.513790	0.865630
In21	In2	0.190780	0.530380	0.655460
O11	O1	0.428700	0.515230	0.888100
H11	H1	0.456700	0.522300	0.849900
O21	O2	0.274400	0.491810	0.751430
H21	H2	0.308300	0.461600	0.742400
O31	O3	0.090400	0.558660	0.563650
H31	H3	0.085700	0.596900	0.550900
O41	O4	0.286500	0.543650	0.976100
O51	O5	0.425900	0.564290	0.040100
O61	O6	0.281400	0.896530	0.339100
O71	O7	0.179900	0.898700	0.227000
O81	O8	0.009900	0.545200	0.400700
O91	O9	0.916600	0.505250	0.300200
O101	O10	0.205100	0.452990	0.597300
O111	O11	0.107300	0.445780	0.485000
O121	O12	0.779300	0.387100	0.482300
O131	O13	0.704500	0.429100	0.377200
O141	O14	0.408100	0.066980	0.508300
O151	O15	0.296900	0.074350	0.402300
C11	C1	0.342900	0.567900	0.028600
C21	C2	0.311700	0.603200	0.082900
H41	H4	0.352900	0.624900	0.117900
C31	C3	0.228200	0.605500	0.084200
H51	H5	0.186200	0.587300	0.045500
C41	C4	0.197800	0.635600	0.144300
C51	C5	0.201800	0.694400	0.152100
C61	C6	0.180400	0.719700	0.214800
C71	C7	0.149700	0.686900	0.266100
C81	C8	0.140300	0.628100	0.254400
C91	C9	0.164000	0.602000	0.193700
C101	C10	0.232900	0.731300	0.096800
H61	H6	0.231100	0.770300	0.111100
H71	H7	0.292400	0.721100	0.097500
H81	H8	0.194900	0.725800	0.046400
C111	C11	0.123200	0.712200	0.332900
H91	H9	0.104100	0.682600	0.361100
H101	H10	0.172900	0.731600	0.365500
H111	H11	0.075600	0.738600	0.314700
C121	C12	0.159900	0.538400	0.183000
H121	H12	0.178600	0.528700	0.138500
H131	H13	0.198100	0.520500	0.226800
H141	H14	0.100200	0.525700	0.176800
C131	C13	0.187000	0.781600	0.222100
H151	H15	0.155700	0.802500	0.180300
C141	C14	0.231800	0.810700	0.280700
H161	H16	0.265100	0.791400	0.323300
C151	C15	0.231500	0.873200	0.281700
C161	C16	0.098700	0.595500	0.304900
H171	H17	0.125600	0.595700	0.357000
C171	C17	0.025200	0.566100	0.279400
H181	H18	0.999900	0.563900	0.227200
C181	C18	0.981500	0.536600	0.331200
C191	C19	0.179200	0.434500	0.531700
C201	C20	0.237300	0.392900	0.506300
H191	H19	0.216300	0.374800	0.459700
C211	C21	0.316700	0.381400	0.547900
H201	H20	0.334700	0.400000	0.594500
C221	C22	0.381900	0.341800	0.529300
C231	C23	0.457900	0.364000	0.514900
C241	C24	0.524200	0.327100	0.505200
C251	C25	0.512400	0.268900	0.506500
C261	C26	0.433200	0.247100	0.515900
C271	C27	0.369500	0.283400	0.530800
C281	C28	0.467000	0.428300	0.510700
H211	H21	0.522400	0.437400	0.500500
H221	H22	0.419300	0.443000	0.470600
H231	H23	0.464900	0.444900	0.558300
C291	C29	0.580500	0.228800	0.490600
H241	H24	0.561600	0.190400	0.493900
H251	H25	0.586900	0.235700	0.440400
H261	H26	0.636300	0.234800	0.527400
C301	C30	0.290700	0.259300	0.553400
H271	H27	0.292400	0.218600	0.551400
H281	H28	0.292700	0.271100	0.604200
H291	H29	0.237100	0.272700	0.518900
C311	C31	0.610200	0.348900	0.496200
H301	H30	0.660600	0.339600	0.534400
C321	C32	0.621500	0.378600	0.442300
H311	H31	0.571500	0.388700	0.404100
C331	C33	0.710300	0.399400	0.434600
C341	C34	0.420200	0.184800	0.511400
H321	H32	0.463000	0.163000	0.544500
C351	C35	0.355100	0.157700	0.465600
H331	H33	0.307800	0.178400	0.436100
C361	C36	0.353200	0.094600	0.458700
In31	In3	0.709980	0.013790	0.634370
In41	In4	0.809220	0.030380	0.844540
O161	O16	0.571300	0.015230	0.611900
H341	H34	0.543300	0.022300	0.650100
O171	O17	0.725600	0.991810	0.748570
H351	H35	0.691700	0.961600	0.757600
O181	O18	0.909600	0.058660	0.936350
H361	H36	0.914300	0.096900	0.949100
O191	O19	0.713500	0.043650	0.523900
O201	O20	0.574100	0.064290	0.459900
O211	O21	0.718600	0.396530	0.160900
O221	O22	0.820100	0.398700	0.273000
O231	O23	0.990100	0.045200	0.099300
O241	O24	0.083400	0.005250	0.199800
O251	O25	0.794900	0.952990	0.902700
O261	O26	0.892700	0.945780	0.015000
O271	O27	0.220700	0.887100	0.017700
O281	O28	0.295500	0.929100	0.122800
O291	O29	0.591900	0.566980	0.991700
O301	O30	0.703100	0.574350	0.097700
C371	C37	0.657100	0.067900	0.471400
C381	C38	0.688300	0.103200	0.417100
H371	H37	0.647100	0.124900	0.382100
C391	C39	0.771800	0.105500	0.415800
H381	H38	0.813800	0.087300	0.454500
C401	C40	0.802200	0.135600	0.355700
C411	C41	0.798200	0.194400	0.347900
C421	C42	0.819600	0.219700	0.285200
C431	C43	0.850300	0.186900	0.233900
C441	C44	0.859700	0.128100	0.245600
C451	C45	0.836000	0.102000	0.306300
C461	C46	0.767100	0.231300	0.403200
H391	H39	0.768900	0.270300	0.388900
H401	H40	0.707600	0.221100	0.402500
H411	H41	0.805100	0.225800	0.453600
C471	C47	0.876800	0.212200	0.167100
H421	H42	0.895900	0.182600	0.138900
H431	H43	0.827100	0.231600	0.134500
H441	H44	0.924400	0.238600	0.185300
C481	C48	0.840100	0.038400	0.317000
H451	H45	0.821400	0.028700	0.361500
H461	H46	0.801900	0.020500	0.273200
H471	H47	0.899800	0.025700	0.323200
C491	C49	0.813000	0.281600	0.277900
H481	H48	0.844300	0.302500	0.319700
C501	C50	0.768200	0.310700	0.219300
H491	H49	0.734900	0.291400	0.176700
C511	C51	0.768500	0.373200	0.218300
C521	C52	0.901300	0.095500	0.195100
H501	H50	0.874400	0.095700	0.143000
C531	C53	0.974800	0.066100	0.220600
H511	H51	0.000100	0.063900	0.272800
C541	C54	0.018500	0.036600	0.168800
C551	C55	0.820800	0.934500	0.968300
C561	C56	0.762700	0.892900	0.993700
H521	H52	0.783700	0.874800	0.040300
C571	C57	0.683300	0.881400	0.952100
H531	H53	0.665300	0.900000	0.905500
C581	C58	0.618100	0.841800	0.970700
C591	C59	0.542100	0.864000	0.985100
C601	C60	0.475800	0.827100	0.994800
C611	C61	0.487600	0.768900	0.993500
C621	C62	0.566800	0.747100	0.984100
C631	C63	0.630500	0.783400	0.969200
C641	C64	0.533000	0.928300	0.989300
H541	H54	0.477600	0.937400	0.999500
H551	H55	0.580700	0.943000	0.029400
H561	H56	0.535100	0.944900	0.941700
C651	C65	0.419500	0.728800	0.009400
H571	H57	0.438400	0.690400	0.006100
H581	H58	0.413100	0.735700	0.059600
H591	H59	0.363700	0.734800	0.972600
C661	C66	0.709300	0.759300	0.946600
H601	H60	0.707600	0.718600	0.948600
H611	H61	0.707300	0.771100	0.895800
H621	H62	0.762900	0.772700	0.981100
C671	C67	0.389800	0.848900	0.003800
H631	H63	0.339400	0.839600	0.965600
C681	C68	0.378500	0.878600	0.057700
H641	H64	0.428500	0.888700	0.095900
C691	C69	0.289700	0.899400	0.065400
C701	C70	0.579800	0.684800	0.988600
H651	H65	0.537000	0.663000	0.955500
C711	C71	0.644900	0.657700	0.034400
H661	H66	0.692200	0.678400	0.063900
C721	C72	0.646800	0.594600	0.041300
In51	In5	0.709980	0.486210	0.134370
In61	In6	0.809220	0.469620	0.344540
O311	O31	0.571300	0.484770	0.111900
H671	H67	0.543300	0.477700	0.150100
O321	O32	0.725600	0.508190	0.248570
H681	H68	0.691700	0.538400	0.257600
O331	O33	0.909600	0.441340	0.436350
H691	H69	0.914300	0.403100	0.449100
O341	O34	0.713500	0.456350	0.023900
O351	O35	0.574100	0.435710	0.959900
O361	O36	0.718600	0.103470	0.660900
O371	O37	0.820100	0.101300	0.773000
O381	O38	0.990100	0.454800	0.599300
O391	O39	0.083400	0.494750	0.699800
O401	O40	0.794900	0.547010	0.402700
O411	O41	0.892700	0.554220	0.515000
O421	O42	0.220700	0.612900	0.517700
O431	O43	0.295500	0.570900	0.622800
O441	O44	0.591900	0.933020	0.491700
O451	O45	0.703100	0.925650	0.597700
C731	C73	0.657100	0.432100	0.971400
C741	C74	0.688300	0.396800	0.917100
H701	H70	0.647100	0.375100	0.882100
C751	C75	0.771800	0.394500	0.915800
H711	H71	0.813800	0.412700	0.954500
C761	C76	0.802200	0.364400	0.855700
C771	C77	0.798200	0.305600	0.847900
C781	C78	0.819600	0.280300	0.785200
C791	C79	0.850300	0.313100	0.733900
C801	C80	0.859700	0.371900	0.745600
C811	C81	0.836000	0.398000	0.806300
C821	C82	0.767100	0.268700	0.903200
H721	H72	0.768900	0.229700	0.888900
H731	H73	0.707600	0.278900	0.902500
H741	H74	0.805100	0.274200	0.953600
C831	C83	0.876800	0.287800	0.667100
H751	H75	0.895900	0.317400	0.638900
H761	H76	0.827100	0.268400	0.634500
H771	H77	0.924400	0.261400	0.685300
C841	C84	0.840100	0.461600	0.817000
H781	H78	0.821400	0.471300	0.861500
H791	H79	0.801900	0.479500	0.773200
H801	H80	0.899800	0.474300	0.823200
C851	C85	0.813000	0.218400	0.777900
H811	H81	0.844300	0.197500	0.819700
C861	C86	0.768200	0.189300	0.719300
H821	H82	0.734900	0.208600	0.676700
C871	C87	0.768500	0.126800	0.718300
C881	C88	0.901300	0.404500	0.695100
H831	H83	0.874400	0.404300	0.643000
C891	C89	0.974800	0.433900	0.720600
H841	H84	0.000100	0.436100	0.772800
C901	C90	0.018500	0.463400	0.668800
C911	C91	0.820800	0.565500	0.468300
C921	C92	0.762700	0.607100	0.493700
H851	H85	0.783700	0.625200	0.540300
C931	C93	0.683300	0.618600	0.452100
H861	H86	0.665300	0.600000	0.405500
C941	C94	0.618100	0.658200	0.470700
C951	C95	0.542100	0.636000	0.485100
C961	C96	0.475800	0.672900	0.494800
C971	C97	0.487600	0.731100	0.493500
C981	C98	0.566800	0.752900	0.484100
C991	C99	0.630500	0.716600	0.469200
C1001	C100	0.533000	0.571700	0.489300
H871	H87	0.477600	0.562600	0.499500
H881	H88	0.580700	0.557000	0.529400
H891	H89	0.535100	0.555100	0.441700
C1011	C101	0.419500	0.771200	0.509400
H901	H90	0.438400	0.809600	0.506100
H911	H91	0.413100	0.764300	0.559600
H921	H92	0.363700	0.765200	0.472600
C1021	C102	0.709300	0.740700	0.446600
H931	H93	0.707600	0.781400	0.448600
H941	H94	0.707300	0.728900	0.395800
H951	H95	0.762900	0.727300	0.481100
C1031	C103	0.389800	0.651100	0.503800
H961	H96	0.339400	0.660400	0.465600
C1041	C104	0.378500	0.621400	0.557700
H971	H97	0.428500	0.611300	0.595900
C1051	C105	0.289700	0.600600	0.565400
C1061	C106	0.579800	0.815200	0.488600
H981	H98	0.537000	0.837000	0.455500
C1071	C107	0.644900	0.842300	0.534400
H991	H99	0.692200	0.821600	0.563900
C1081	C108	0.646800	0.905400	0.541300
In71	In7	0.290020	0.986210	0.365630
In81	In8	0.190780	0.969620	0.155460
O461	O46	0.428700	0.984770	0.388100
H1001	H100	0.456700	0.977700	0.349900
O471	O47	0.274400	0.008190	0.251430
H1011	H101	0.308300	0.038400	0.242400
O481	O48	0.090400	0.941340	0.063650
H1021	H102	0.085700	0.903100	0.050900
O491	O49	0.286500	0.956350	0.476100
O501	O50	0.425900	0.935710	0.540100
O511	O51	0.281400	0.603470	0.839100
O521	O52	0.179900	0.601300	0.727000
O531	O53	0.009900	0.954800	0.900700
O541	O54	0.916600	0.994750	0.800200
O551	O55	0.205100	0.047010	0.097300
O561	O56	0.107300	0.054220	0.985000
O571	O57	0.779300	0.112900	0.982300
O581	O58	0.704500	0.070900	0.877200
O591	O59	0.408100	0.433020	0.008300
O601	O60	0.296900	0.425650	0.902300
C1091	C109	0.342900	0.932100	0.528600
C1101	C110	0.311700	0.896800	0.582900
H1031	H103	0.352900	0.875100	0.617900
C1111	C111	0.228200	0.894500	0.584200
H1041	H104	0.186200	0.912700	0.545500
C1121	C112	0.197800	0.864400	0.644300
C1131	C113	0.201800	0.805600	0.652100
C1141	C114	0.180400	0.780300	0.714800
C1151	C115	0.149700	0.813100	0.766100
C1161	C116	0.140300	0.871900	0.754400
C1171	C117	0.164000	0.898000	0.693700
C1181	C118	0.232900	0.768700	0.596800
H1051	H105	0.231100	0.729700	0.611100
H1061	H106	0.292400	0.778900	0.597500
H1071	H107	0.194900	0.774200	0.546400
C1191	C119	0.123200	0.787800	0.832900
H1081	H108	0.104100	0.817400	0.861100
H1091	H109	0.172900	0.768400	0.865500
H1101	H110	0.075600	0.761400	0.814700
C1201	C120	0.159900	0.961600	0.683000
H1111	H111	0.178600	0.971300	0.638500
H1121	H112	0.198100	0.979500	0.726800
H1131	H113	0.100200	0.974300	0.676800
C1211	C121	0.187000	0.718400	0.722100
H1141	H114	0.155700	0.697500	0.680300
C1221	C122	0.231800	0.689300	0.780700
H1151	H115	0.265100	0.708600	0.823300
C1231	C123	0.231500	0.626800	0.781700
C1241	C124	0.098700	0.904500	0.804900
H1161	H116	0.125600	0.904300	0.857000
C1251	C125	0.025200	0.933900	0.779400
H1171	H117	0.999900	0.936100	0.727200
C1261	C126	0.981500	0.963400	0.831200
C1271	C127	0.179200	0.065500	0.031700
C1281	C128	0.237300	0.107100	0.006300
H1181	H118	0.216300	0.125200	0.959700
C1291	C129	0.316700	0.118600	0.047900
H1191	H119	0.334700	0.100000	0.094500
C1301	C130	0.381900	0.158200	0.029300
C1311	C131	0.457900	0.136000	0.014900
C1321	C132	0.524200	0.172900	0.005200
C1331	C133	0.512400	0.231100	0.006500
C1341	C134	0.433200	0.252900	0.015900
C1351	C135	0.369500	0.216600	0.030800
C1361	C136	0.467000	0.071700	0.010700
H1201	H120	0.522400	0.062600	0.000500
H1211	H121	0.419300	0.057000	0.970600
H1221	H122	0.464900	0.055100	0.058300
C1371	C137	0.580500	0.271200	0.990600
H1231	H123	0.561600	0.309600	0.993900
H1241	H124	0.586900	0.264300	0.940400
H1251	H125	0.636300	0.265200	0.027400
C1381	C138	0.290700	0.240700	0.053400
H1261	H126	0.292400	0.281400	0.051400
H1271	H127	0.292700	0.228900	0.104200
H1281	H128	0.237100	0.227300	0.018900
C1391	C139	0.610200	0.151100	0.996200
H1291	H129	0.660600	0.160400	0.034400
C1401	C140	0.621500	0.121400	0.942300
H1301	H130	0.571500	0.111300	0.904100
C1411	C141	0.710300	0.100600	0.934600
C1421	C142	0.420200	0.315200	0.011400
H1311	H131	0.463000	0.337000	0.044500
C1431	C143	0.355100	0.342300	0.965600
H1321	H132	0.307800	0.321600	0.936100
C1441	C144	0.353200	0.405400	0.958700
In91	In9	0.500000	0.500000	0.000000
In101	In10	0.500000	0.000000	0.500000
In111	In11	0.000000	0.500000	0.500000
In121	In12	0.000000	0.000000	0.000000
