data_VATVIY_clean_PM
_symmetry_space_group_name_H-M	'P1'
_cell_length_a	12.705000
_cell_length_b	24.225300
_cell_length_c	15.054200
_cell_angle_alpha	90.000000
_cell_angle_beta	92.802000
_cell_angle_gamma	90.000000
_symmetry_Int_Tables_number 1

loop_
_symmetry_equiv_pos_as_xyz
'x,y,z'

loop_
_atom_site_label
_atom_site_type_symbol
_atom_site_fract_x
_atom_site_fract_y
_atom_site_fract_z
Cd11	Cd1	0.962700	0.904680	0.054260
Cd21	Cd2	0.957680	0.909770	0.326490
Cd31	Cd3	0.497200	0.899170	0.781250
Cd41	Cd4	0.511460	0.905740	0.508900
N11	N1	0.085400	0.972700	0.314200
N21	N2	0.635000	0.838800	0.789700
O11	O1	0.072900	0.837000	0.302700
N31	N3	0.170800	0.343600	0.944900
N41	N4	0.618400	0.469100	0.474900
O21	O2	0.400100	0.834700	0.542900
N51	N5	0.353600	0.345800	0.468800
O31	O3	0.042100	0.855400	0.942600
O41	O4	0.008700	0.892200	0.473500
N61	N6	0.903700	0.465900	0.942900
N71	N7	0.369100	0.964800	0.780900
N81	N8	0.825300	0.846500	0.315100
N91	N9	0.248000	0.262900	0.926200
O51	O5	0.421600	0.846000	0.895700
C11	C1	0.302700	0.811500	0.142000
C21	C2	0.997700	0.916100	0.545500
N101	N10	0.818100	0.544500	0.924600
O61	O6	0.509000	0.917600	0.949300
C31	C3	0.907800	0.517000	0.918400
H11	H1	0.968500	0.533100	0.898100
C41	C4	0.470200	0.903700	0.291200
C51	C5	0.726300	0.850500	0.280000
H21	H2	0.696200	0.881800	0.253600
O71	O7	0.225400	0.771000	0.146100
C61	C6	0.114300	0.844700	0.619400
H31	H3	0.136700	0.835300	0.563500
C71	C7	0.734900	0.710500	0.355400
C81	C8	0.250900	0.356300	0.460700
H41	H4	0.221400	0.390600	0.472400
C91	C9	0.817300	0.674200	0.357700
H51	H5	0.883400	0.686100	0.342000
C101	C10	0.274600	0.347400	0.971300
H61	H6	0.307000	0.379200	0.993900
N111	N11	0.176100	0.051000	0.328000
C111	C11	0.669400	0.673800	0.877000
H71	H7	0.600500	0.686800	0.875900
C121	C12	0.046400	0.870600	0.785200
C131	C13	0.452400	0.877000	0.959700
O81	O8	0.527800	0.945700	0.282100
C141	C14	0.153200	0.816600	0.693100
C151	C15	0.008600	0.901100	0.711600
H81	H8	0.962000	0.930200	0.718800
C161	C16	0.199400	0.106700	0.352500
C171	C17	0.177000	0.171900	0.899100
H91	H9	0.113000	0.185000	0.918000
C181	C18	0.607000	0.519800	0.446300
H101	H10	0.541500	0.536000	0.434100
C191	C19	0.160600	0.770500	0.222400
H111	H11	0.205900	0.768100	0.276800
C201	C20	0.194800	0.312400	0.434100
H121	H12	0.122100	0.310500	0.423700
C211	C21	0.084400	0.024500	0.340400
H131	H13	0.026600	0.041100	0.364800
N121	N12	0.723800	0.763300	0.826800
O91	O9	0.951200	0.961400	0.554600
C221	C22	0.724500	0.461900	0.486700
H141	H14	0.758500	0.430200	0.507800
C231	C23	0.366200	0.823300	0.617300
C241	C24	0.384400	0.014400	0.813200
H151	H15	0.449900	0.028100	0.832700
C251	C25	0.794900	0.599800	0.901500
C261	C26	0.803400	0.619400	0.383200
H161	H16	0.860000	0.595100	0.383000
C271	C27	0.414600	0.862100	0.051100
C281	C28	0.290800	0.772700	0.616700
H171	H17	0.247300	0.772600	0.561100
C291	C29	0.322500	0.181000	0.371700
H181	H18	0.390300	0.194600	0.366000
O101	O10	0.951900	0.926000	0.887500
C301	C30	0.010100	0.885500	0.877300
C311	C31	0.143100	0.195400	0.402000
H191	H19	0.089500	0.218500	0.419800
O111	O11	0.224700	0.772990	0.689100
N131	N13	0.294400	0.043200	0.814800
O121	O12	0.454500	0.881600	0.365100
N141	N14	0.747700	0.765800	0.331100
C321	C32	0.709000	0.601100	0.408100
N151	N15	0.265800	0.270400	0.425000
N161	N16	0.695100	0.545200	0.436500
C331	C33	0.282500	0.098600	0.843400
C341	C34	0.344200	0.839300	0.216900
H201	H20	0.319000	0.831600	0.272500
C351	C35	0.093300	0.719600	0.214300
H211	H21	0.137600	0.687600	0.212400
H221	H22	0.049300	0.721600	0.160700
H231	H23	0.049900	0.717200	0.264600
C361	C36	0.218200	0.007800	0.780800
H241	H24	0.146700	0.015400	0.772400
C371	C37	0.238300	0.014300	0.288900
H251	H25	0.305600	0.020800	0.269600
C381	C38	0.118300	0.829100	0.777600
H261	H26	0.143400	0.809600	0.827400
C391	C39	0.356100	0.188100	0.873700
H271	H27	0.413500	0.212000	0.874500
C401	C40	0.041200	0.887600	0.627600
O131	O13	0.387400	0.845200	0.689600
C411	C41	0.422600	0.878100	0.208600
C421	C42	0.457600	0.890200	0.125200
H281	H28	0.509300	0.916800	0.118600
C431	C43	0.628800	0.785600	0.810200
H291	H29	0.565800	0.766200	0.812800
C441	C44	0.638800	0.692200	0.379800
H301	H30	0.582000	0.716400	0.380800
C451	C45	0.300400	0.127100	0.352200
H311	H31	0.355000	0.103600	0.338400
C461	C46	0.771800	0.509500	0.462200
H321	H32	0.844000	0.516200	0.463100
C471	C47	0.850400	0.688900	0.851200
H331	H33	0.904500	0.711800	0.833900
C481	C48	0.335500	0.823500	0.059400
H341	H34	0.305200	0.806100	0.009400
C491	C49	0.676800	0.800600	0.289900
H351	H35	0.607700	0.792100	0.271700
C501	C50	0.359700	0.294000	0.447100
H361	H36	0.423200	0.274800	0.446700
C511	C51	0.260800	0.206500	0.898500
C521	C52	0.797100	0.805000	0.818100
H371	H37	0.869800	0.801900	0.826600
C531	C53	0.808400	0.459000	0.970600
H381	H38	0.782800	0.426300	0.993500
C541	C54	0.367500	0.134000	0.847300
H391	H39	0.433200	0.121300	0.831900
C551	C55	0.185200	0.117300	0.872100
H401	H40	0.127500	0.093700	0.872900
C561	C56	0.354200	0.720500	0.622600
H411	H41	0.307500	0.689300	0.621000
H421	H42	0.396300	0.720200	0.677300
H431	H43	0.399300	0.718600	0.573400
C571	C57	0.741600	0.851600	0.794800
H441	H44	0.770400	0.886100	0.784200
C581	C58	0.692100	0.620100	0.903400
H451	H45	0.638500	0.597500	0.922500
C591	C59	0.749900	0.707900	0.852300
C601	C60	0.157200	0.292700	0.918500
H461	H46	0.093000	0.278500	0.896900
C611	C61	0.243600	0.215100	0.400000
C621	C62	0.870700	0.634400	0.876500
H471	H47	0.939600	0.621500	0.876200
C631	C63	0.752800	0.506200	0.961300
H481	H48	0.683600	0.511900	0.976700
C641	C64	0.626500	0.636700	0.403300
H491	H49	0.559900	0.623900	0.416000
C651	C65	0.121100	0.143000	0.378600
H501	H50	0.052000	0.130500	0.379800
C661	C66	0.265400	0.961100	0.762100
H511	H51	0.231300	0.929900	0.739000
C671	C67	0.836900	0.796300	0.346800
H521	H52	0.898000	0.783100	0.376100
C681	C68	0.184600	0.966000	0.282800
H531	H53	0.210800	0.933200	0.260800
C691	C69	0.323200	0.299400	0.960500
H541	H54	0.394000	0.291900	0.973500
O141	O14	0.061600	0.842900	0.154000
C701	C70	0.092100	0.822000	0.225900
Cd51	Cd5	0.037300	0.404680	0.945740
Cd61	Cd6	0.042320	0.409770	0.673510
Cd71	Cd7	0.502800	0.399170	0.218750
Cd81	Cd8	0.488540	0.405740	0.491100
N171	N17	0.914600	0.472700	0.685800
N181	N18	0.365000	0.338800	0.210300
O151	O15	0.927100	0.337000	0.697300
N191	N19	0.829200	0.843600	0.055100
N201	N20	0.381600	0.969100	0.525100
O161	O16	0.599900	0.334700	0.457100
N211	N21	0.646400	0.845800	0.531200
O171	O17	0.957900	0.355400	0.057400
O181	O18	0.991300	0.392200	0.526500
N221	N22	0.096300	0.965900	0.057100
N231	N23	0.630900	0.464800	0.219100
N241	N24	0.174700	0.346500	0.684900
N251	N25	0.752000	0.762900	0.073800
O191	O19	0.578400	0.346000	0.104300
C711	C71	0.697300	0.311500	0.858000
C721	C72	0.002300	0.416100	0.454500
N261	N26	0.181900	0.044500	0.075400
O201	O20	0.491000	0.417600	0.050700
C731	C73	0.092200	0.017000	0.081600
H551	H55	0.031500	0.033100	0.101900
C741	C74	0.529800	0.403700	0.708800
C751	C75	0.273700	0.350500	0.720000
H561	H56	0.303800	0.381800	0.746400
O211	O21	0.774600	0.271000	0.853900
C761	C76	0.885700	0.344700	0.380600
H571	H57	0.863300	0.335300	0.436500
C771	C77	0.265100	0.210500	0.644600
C781	C78	0.749100	0.856300	0.539300
H581	H58	0.778600	0.890600	0.527600
C791	C79	0.182700	0.174200	0.642300
H591	H59	0.116600	0.186100	0.658000
C801	C80	0.725400	0.847400	0.028700
H601	H60	0.693000	0.879200	0.006100
N271	N27	0.823900	0.551000	0.672000
C811	C81	0.330600	0.173800	0.123000
H611	H61	0.399500	0.186800	0.124100
C821	C82	0.953600	0.370600	0.214800
C831	C83	0.547600	0.377000	0.040300
O221	O22	0.472200	0.445700	0.717900
C841	C84	0.846800	0.316600	0.306900
C851	C85	0.991400	0.401100	0.288400
H621	H62	0.038000	0.430200	0.281200
C861	C86	0.800600	0.606700	0.647500
C871	C87	0.823000	0.671900	0.100900
H631	H63	0.887000	0.685000	0.082000
C881	C88	0.393000	0.019800	0.553700
H641	H64	0.458500	0.036000	0.565900
C891	C89	0.839400	0.270500	0.777600
H651	H65	0.794100	0.268100	0.723200
C901	C90	0.805200	0.812400	0.565900
H661	H66	0.877900	0.810500	0.576300
C911	C91	0.915600	0.524500	0.659600
H671	H67	0.973400	0.541100	0.635200
N281	N28	0.276200	0.263300	0.173200
O231	O23	0.048800	0.461400	0.445400
C921	C92	0.275500	0.961900	0.513300
H681	H68	0.241500	0.930200	0.492200
C931	C93	0.633800	0.323300	0.382700
C941	C94	0.615600	0.514400	0.186800
H691	H69	0.550100	0.528100	0.167300
C951	C95	0.205100	0.099800	0.098500
C961	C96	0.196600	0.119400	0.616800
H701	H70	0.140000	0.095100	0.617000
C971	C97	0.585400	0.362100	0.948900
C981	C98	0.709200	0.272700	0.383300
H711	H71	0.752700	0.272600	0.438900
C991	C99	0.677500	0.681000	0.628300
H721	H72	0.609700	0.694600	0.634000
O241	O24	0.048100	0.426000	0.112500
C1001	C100	0.989900	0.385500	0.122700
C1011	C101	0.856900	0.695400	0.598000
H731	H73	0.910500	0.718500	0.580200
O251	O25	0.775300	0.272990	0.310900
N291	N29	0.705600	0.543200	0.185200
O261	O26	0.545500	0.381600	0.634900
N301	N30	0.252300	0.265800	0.668900
C1021	C102	0.291000	0.101100	0.591900
N311	N31	0.734200	0.770400	0.575000
N321	N32	0.304900	0.045200	0.563500
C1031	C103	0.717500	0.598600	0.156600
C1041	C104	0.655800	0.339300	0.783100
H741	H74	0.681000	0.331600	0.727500
C1051	C105	0.906700	0.219600	0.785700
H751	H75	0.862400	0.187600	0.787600
H761	H76	0.950700	0.221600	0.839300
H771	H77	0.950100	0.217200	0.735400
C1061	C106	0.781800	0.507800	0.219200
H781	H78	0.853300	0.515400	0.227600
C1071	C107	0.761700	0.514300	0.711100
H791	H79	0.694400	0.520800	0.730400
C1081	C108	0.881700	0.329100	0.222400
H801	H80	0.856600	0.309600	0.172600
C1091	C109	0.643900	0.688100	0.126300
H811	H81	0.586500	0.712000	0.125500
C1101	C110	0.958800	0.387600	0.372400
O271	O27	0.612600	0.345200	0.310400
C1111	C111	0.577400	0.378100	0.791400
C1121	C112	0.542400	0.390200	0.874800
H821	H82	0.490700	0.416800	0.881400
C1131	C113	0.371200	0.285600	0.189800
H831	H83	0.434200	0.266200	0.187200
C1141	C114	0.361200	0.192200	0.620200
H841	H84	0.418000	0.216400	0.619200
C1151	C115	0.699600	0.627100	0.647800
H851	H85	0.645000	0.603600	0.661600
C1161	C116	0.228200	0.009500	0.537800
H861	H86	0.156000	0.016200	0.536900
C1171	C117	0.149600	0.188900	0.148800
H871	H87	0.095500	0.211800	0.166100
C1181	C118	0.664500	0.323500	0.940600
H881	H88	0.694800	0.306100	0.990600
C1191	C119	0.323200	0.300600	0.710100
H891	H89	0.392300	0.292100	0.728300
C1201	C120	0.640300	0.794000	0.552900
H901	H90	0.576800	0.774800	0.553300
C1211	C121	0.739200	0.706500	0.101500
C1221	C122	0.202900	0.305000	0.181900
H911	H91	0.130200	0.301900	0.173400
C1231	C123	0.191600	0.959000	0.029400
H921	H92	0.217200	0.926300	0.006500
C1241	C124	0.632500	0.634000	0.152700
H931	H93	0.566800	0.621300	0.168100
C1251	C125	0.814800	0.617300	0.127900
H941	H94	0.872500	0.593700	0.127100
C1261	C126	0.645800	0.220500	0.377400
H951	H95	0.692500	0.189300	0.379000
H961	H96	0.603700	0.220200	0.322700
H971	H97	0.600700	0.218600	0.426600
C1271	C127	0.258400	0.351600	0.205200
H981	H98	0.229600	0.386100	0.215800
C1281	C128	0.307900	0.120100	0.096600
H991	H99	0.361500	0.097500	0.077500
C1291	C129	0.250100	0.207900	0.147700
C1301	C130	0.842800	0.792700	0.081500
H1001	H100	0.907000	0.778500	0.103100
C1311	C131	0.756400	0.715100	0.600000
C1321	C132	0.129300	0.134400	0.123500
H1011	H101	0.060400	0.121500	0.123800
C1331	C133	0.247200	0.006200	0.038700
H1021	H102	0.316400	0.011900	0.023300
C1341	C134	0.373500	0.136700	0.596700
H1031	H103	0.440100	0.123900	0.584000
C1351	C135	0.878900	0.643000	0.621400
H1041	H104	0.948000	0.630500	0.620200
C1361	C136	0.734600	0.461100	0.237900
H1051	H105	0.768700	0.429900	0.261000
C1371	C137	0.163100	0.296300	0.653200
H1061	H106	0.102000	0.283100	0.623900
C1381	C138	0.815400	0.466000	0.717200
H1071	H107	0.789200	0.433200	0.739200
C1391	C139	0.676800	0.799400	0.039500
H1081	H108	0.606000	0.791900	0.026500
O281	O28	0.938400	0.342900	0.846000
C1401	C140	0.907900	0.322000	0.774100
