data_VATVUK_clean_PM
_symmetry_space_group_name_H-M	'P1'
_cell_length_a	23.640800
_cell_length_b	16.371400
_cell_length_c	6.587000
_cell_angle_alpha	90.000000
_cell_angle_beta	90.000000
_cell_angle_gamma	90.000000
_symmetry_Int_Tables_number 1

loop_
_symmetry_equiv_pos_as_xyz
'x,y,z'

loop_
_atom_site_label
_atom_site_type_symbol
_atom_site_fract_x
_atom_site_fract_y
_atom_site_fract_z
Mn11	Mn1	0.825560	0.889300	0.884900
N11	N1	0.612700	0.652900	0.951900
N21	N2	0.732390	0.921590	0.868000
N31	N3	0.818700	0.029280	0.896100
O11	O1	0.799030	0.760300	0.885900
O21	O2	0.873050	0.677480	0.910000
H11	H1	0.890600	0.720700	0.911400
O31	O3	0.669720	0.369100	0.715400
O41	O4	0.665800	0.371500	0.050800
O51	O5	0.415140	0.598690	0.877300
O61	O6	0.445900	0.720550	0.987300
C11	C1	0.819500	0.692400	0.896700
C21	C2	0.783190	0.616940	0.891400
C31	C3	0.806960	0.539100	0.877300
H21	H2	0.846000	0.532700	0.870100
C41	C4	0.771750	0.471900	0.874200
H31	H3	0.787400	0.419900	0.865500
C51	C5	0.713150	0.480310	0.883900
C61	C6	0.679630	0.401500	0.882900
C71	C7	0.688490	0.558800	0.898000
C81	C8	0.725170	0.625100	0.901200
H41	H4	0.709900	0.677400	0.910400
C91	C9	0.626080	0.575500	0.904200
C101	C10	0.584410	0.518000	0.866100
H51	H5	0.594400	0.464200	0.838200
C111	C11	0.528430	0.540100	0.869400
H61	H6	0.500600	0.502000	0.837700
C121	C12	0.513600	0.618500	0.919500
C131	C13	0.557870	0.672600	0.957900
H71	H7	0.548600	0.726200	0.990000
C141	C14	0.453520	0.647500	0.927500
C151	C15	0.690300	0.868600	0.850300
H81	H8	0.699300	0.813300	0.845200
C161	C16	0.633400	0.890600	0.838800
H91	H9	0.605400	0.851300	0.823000
C171	C17	0.620120	0.971000	0.851300
H101	H10	0.582500	0.987200	0.844700
C181	C18	0.662680	0.029800	0.874100
C191	C19	0.718990	0.001200	0.878500
C201	C20	0.651900	0.115200	0.884000
H111	H11	0.614800	0.133900	0.878900
C211	C21	0.694300	0.168900	0.900300
H121	H12	0.686000	0.224300	0.910800
C221	C22	0.752900	0.142600	0.902100
C231	C23	0.765150	0.059400	0.894500
C241	C24	0.797700	0.196200	0.917700
H131	H13	0.790800	0.252000	0.924400
C251	C25	0.852200	0.167700	0.923500
H141	H14	0.882500	0.203600	0.934900
C261	C26	0.861400	0.082000	0.911700
H151	H15	0.898300	0.062200	0.914900
Mn21	Mn2	0.174440	0.110700	0.384900
N41	N4	0.387300	0.347100	0.451900
N51	N5	0.267610	0.078410	0.368000
N61	N6	0.181300	0.970720	0.396100
O71	O7	0.200970	0.239700	0.385900
O81	O8	0.126950	0.322520	0.410000
H161	H16	0.109400	0.279300	0.411400
O91	O9	0.330280	0.630900	0.215400
O101	O10	0.334200	0.628500	0.550800
O111	O11	0.584860	0.401310	0.377300
O121	O12	0.554100	0.279450	0.487300
C271	C27	0.180500	0.307600	0.396700
C281	C28	0.216810	0.383060	0.391400
C291	C29	0.193040	0.460900	0.377300
H171	H17	0.154000	0.467300	0.370100
C301	C30	0.228250	0.528100	0.374200
H181	H18	0.212600	0.580100	0.365500
C311	C31	0.286850	0.519690	0.383900
C321	C32	0.320370	0.598500	0.382900
C331	C33	0.311510	0.441200	0.398000
C341	C34	0.274830	0.374900	0.401200
H191	H19	0.290100	0.322600	0.410400
C351	C35	0.373920	0.424500	0.404200
C361	C36	0.415590	0.482000	0.366100
H201	H20	0.405600	0.535800	0.338200
C371	C37	0.471570	0.459900	0.369400
H211	H21	0.499400	0.498000	0.337700
C381	C38	0.486400	0.381500	0.419500
C391	C39	0.442130	0.327400	0.457900
H221	H22	0.451400	0.273800	0.490000
C401	C40	0.546480	0.352500	0.427500
C411	C41	0.309700	0.131400	0.350300
H231	H23	0.300700	0.186700	0.345200
C421	C42	0.366600	0.109400	0.338800
H241	H24	0.394600	0.148700	0.323000
C431	C43	0.379880	0.029000	0.351300
H251	H25	0.417500	0.012800	0.344700
C441	C44	0.337320	0.970200	0.374100
C451	C45	0.281010	0.998800	0.378500
C461	C46	0.348100	0.884800	0.384000
H261	H26	0.385200	0.866100	0.378900
C471	C47	0.305700	0.831100	0.400300
H271	H27	0.314000	0.775700	0.410800
C481	C48	0.247100	0.857400	0.402100
C491	C49	0.234850	0.940600	0.394500
C501	C50	0.202300	0.803800	0.417700
H281	H28	0.209200	0.748000	0.424400
C511	C51	0.147800	0.832300	0.423500
H291	H29	0.117500	0.796400	0.434900
C521	C52	0.138600	0.918000	0.411700
H301	H30	0.101700	0.937800	0.414900
Mn31	Mn3	0.325560	0.610700	0.884900
N71	N7	0.112700	0.847100	0.951900
N81	N8	0.232390	0.578410	0.868000
N91	N9	0.318700	0.470720	0.896100
O131	O13	0.299030	0.739700	0.885900
O141	O14	0.373050	0.822520	0.910000
H311	H31	0.390600	0.779300	0.911400
O151	O15	0.169720	0.130900	0.715400
O161	O16	0.165800	0.128500	0.050800
O171	O17	0.915140	0.901310	0.877300
O181	O18	0.945900	0.779450	0.987300
C531	C53	0.319500	0.807600	0.896700
C541	C54	0.283190	0.883060	0.891400
C551	C55	0.306960	0.960900	0.877300
H321	H32	0.346000	0.967300	0.870100
C561	C56	0.271750	0.028100	0.874200
H331	H33	0.287400	0.080100	0.865500
C571	C57	0.213150	0.019690	0.883900
C581	C58	0.179630	0.098500	0.882900
C591	C59	0.188490	0.941200	0.898000
C601	C60	0.225170	0.874900	0.901200
H341	H34	0.209900	0.822600	0.910400
C611	C61	0.126080	0.924500	0.904200
C621	C62	0.084410	0.982000	0.866100
H351	H35	0.094400	0.035800	0.838200
C631	C63	0.028430	0.959900	0.869400
H361	H36	0.000600	0.998000	0.837700
C641	C64	0.013600	0.881500	0.919500
C651	C65	0.057870	0.827400	0.957900
H371	H37	0.048600	0.773800	0.990000
C661	C66	0.953520	0.852500	0.927500
C671	C67	0.190300	0.631400	0.850300
H381	H38	0.199300	0.686700	0.845200
C681	C68	0.133400	0.609400	0.838800
H391	H39	0.105400	0.648700	0.823000
C691	C69	0.120120	0.529000	0.851300
H401	H40	0.082500	0.512800	0.844700
C701	C70	0.162680	0.470200	0.874100
C711	C71	0.218990	0.498800	0.878500
C721	C72	0.151900	0.384800	0.884000
H411	H41	0.114800	0.366100	0.878900
C731	C73	0.194300	0.331100	0.900300
H421	H42	0.186000	0.275700	0.910800
C741	C74	0.252900	0.357400	0.902100
C751	C75	0.265150	0.440600	0.894500
C761	C76	0.297700	0.303800	0.917700
H431	H43	0.290800	0.248000	0.924400
C771	C77	0.352200	0.332300	0.923500
H441	H44	0.382500	0.296400	0.934900
C781	C78	0.361400	0.418000	0.911700
H451	H45	0.398300	0.437800	0.914900
Mn41	Mn4	0.674440	0.389300	0.384900
N101	N10	0.887300	0.152900	0.451900
N111	N11	0.767610	0.421590	0.368000
N121	N12	0.681300	0.529280	0.396100
O191	O19	0.700970	0.260300	0.385900
O201	O20	0.626950	0.177480	0.410000
H461	H46	0.609400	0.220700	0.411400
O211	O21	0.830280	0.869100	0.215400
O221	O22	0.834200	0.871500	0.550800
O231	O23	0.084860	0.098690	0.377300
O241	O24	0.054100	0.220550	0.487300
C791	C79	0.680500	0.192400	0.396700
C801	C80	0.716810	0.116940	0.391400
C811	C81	0.693040	0.039100	0.377300
H471	H47	0.654000	0.032700	0.370100
C821	C82	0.728250	0.971900	0.374200
H481	H48	0.712600	0.919900	0.365500
C831	C83	0.786850	0.980310	0.383900
C841	C84	0.820370	0.901500	0.382900
C851	C85	0.811510	0.058800	0.398000
C861	C86	0.774830	0.125100	0.401200
H491	H49	0.790100	0.177400	0.410400
C871	C87	0.873920	0.075500	0.404200
C881	C88	0.915590	0.018000	0.366100
H501	H50	0.905600	0.964200	0.338200
C891	C89	0.971570	0.040100	0.369400
H511	H51	0.999400	0.002000	0.337700
C901	C90	0.986400	0.118500	0.419500
C911	C91	0.942130	0.172600	0.457900
H521	H52	0.951400	0.226200	0.490000
C921	C92	0.046480	0.147500	0.427500
C931	C93	0.809700	0.368600	0.350300
H531	H53	0.800700	0.313300	0.345200
C941	C94	0.866600	0.390600	0.338800
H541	H54	0.894600	0.351300	0.323000
C951	C95	0.879880	0.471000	0.351300
H551	H55	0.917500	0.487200	0.344700
C961	C96	0.837320	0.529800	0.374100
C971	C97	0.781010	0.501200	0.378500
C981	C98	0.848100	0.615200	0.384000
H561	H56	0.885200	0.633900	0.378900
C991	C99	0.805700	0.668900	0.400300
H571	H57	0.814000	0.724300	0.410800
C1001	C100	0.747100	0.642600	0.402100
C1011	C101	0.734850	0.559400	0.394500
C1021	C102	0.702300	0.696200	0.417700
H581	H58	0.709200	0.752000	0.424400
C1031	C103	0.647800	0.667700	0.423500
H591	H59	0.617500	0.703600	0.434900
C1041	C104	0.638600	0.582000	0.411700
H601	H60	0.601700	0.562200	0.414900
