data_VATYOF_clean_PM
_symmetry_space_group_name_H-M	'P1'
_cell_length_a	8.861000
_cell_length_b	9.352000
_cell_length_c	10.124000
_cell_angle_alpha	64.106000
_cell_angle_beta	75.004000
_cell_angle_gamma	75.389000
_symmetry_Int_Tables_number 1

loop_
_symmetry_equiv_pos_as_xyz
'x,y,z'

loop_
_atom_site_label
_atom_site_type_symbol
_atom_site_fract_x
_atom_site_fract_y
_atom_site_fract_z
Gd11	Gd1	0.331390	0.365760	0.843940
O11	O1	0.084100	0.298200	0.025300
O21	O2	0.327900	0.080600	0.917100
O31	O3	0.527100	0.308500	0.643800
O41	O4	0.525400	0.529000	0.811300
O51	O5	0.434700	0.820100	0.039200
O61	O6	0.859100	0.395600	0.144600
O71	O7	0.661200	0.608700	0.923000
O81	O8	0.659200	0.403200	0.407100
C11	C1	0.982600	0.411200	0.049400
C21	C2	0.432100	0.970400	0.987600
C31	C3	0.553500	0.416800	0.514800
C41	C4	0.553500	0.540400	0.924400
Gd21	Gd2	0.668610	0.634240	0.156060
O91	O9	0.915900	0.701800	0.974700
O101	O10	0.672100	0.919400	0.082900
O111	O11	0.472900	0.691500	0.356200
O121	O12	0.474600	0.471000	0.188700
O131	O13	0.565300	0.179900	0.960800
O141	O14	0.140900	0.604400	0.855400
O151	O15	0.338800	0.391300	0.077000
O161	O16	0.340800	0.596800	0.592900
C51	C5	0.017400	0.588800	0.950600
C61	C6	0.567900	0.029600	0.012400
C71	C7	0.446500	0.583200	0.485200
C81	C8	0.446500	0.459600	0.075600
