data_VAXHOR01_clean_PM
_symmetry_space_group_name_H-M	'P1'
_cell_length_a	18.263000
_cell_length_b	6.852000
_cell_length_c	9.564000
_cell_angle_alpha	90.000000
_cell_angle_beta	90.000000
_cell_angle_gamma	90.000000
_symmetry_Int_Tables_number 1

loop_
_symmetry_equiv_pos_as_xyz
'x,y,z'

loop_
_atom_site_label
_atom_site_type_symbol
_atom_site_fract_x
_atom_site_fract_y
_atom_site_fract_z
O11	O1	0.076500	0.592500	0.244000
O21	O2	0.171000	0.395000	0.091000
O31	O3	0.053500	0.906000	0.585500
C11	C1	0.207500	0.574500	0.093000
C21	C2	0.275000	0.571000	0.022000
O41	O4	0.423500	0.407500	0.744000
O51	O5	0.329000	0.605000	0.591000
O61	O6	0.446500	0.094000	0.085500
C31	C3	0.292500	0.425500	0.593000
C41	C4	0.225000	0.429000	0.522000
O71	O7	0.923500	0.092500	0.756000
O81	O8	0.829000	0.895000	0.909000
O91	O9	0.946500	0.406000	0.414500
C51	C5	0.792500	0.074500	0.907000
C61	C6	0.725000	0.071000	0.978000
O101	O10	0.576500	0.907500	0.256000
O111	O11	0.671000	0.105000	0.409000
O121	O12	0.553500	0.594000	0.914500
C71	C7	0.707500	0.925500	0.407000
C81	C8	0.775000	0.929000	0.478000
O131	O13	0.923500	0.407500	0.756000
O141	O14	0.829000	0.605000	0.909000
O151	O15	0.946500	0.094000	0.414500
C91	C9	0.792500	0.425500	0.907000
C101	C10	0.725000	0.429000	0.978000
O161	O16	0.576500	0.592500	0.256000
O171	O17	0.671000	0.395000	0.409000
O181	O18	0.553500	0.906000	0.914500
C111	C11	0.707500	0.574500	0.407000
C121	C12	0.775000	0.571000	0.478000
O191	O19	0.076500	0.907500	0.244000
O201	O20	0.171000	0.105000	0.091000
O211	O21	0.053500	0.594000	0.585500
C131	C13	0.207500	0.925500	0.093000
C141	C14	0.275000	0.929000	0.022000
O221	O22	0.423500	0.092500	0.744000
O231	O23	0.329000	0.895000	0.591000
O241	O24	0.446500	0.406000	0.085500
C151	C15	0.292500	0.074500	0.593000
C161	C16	0.225000	0.071000	0.522000
Ca11	Ca1	0.980500	0.750000	0.394200
N11	N1	0.378000	0.750000	0.917000
C171	C17	0.105000	0.750000	0.209000
C181	C18	0.174000	0.750000	0.127000
C191	C19	0.307000	0.750000	0.980000
C201	C20	0.073000	0.750000	0.639000
C211	C21	0.126000	0.750000	0.767000
Ca21	Ca2	0.519500	0.250000	0.894200
N21	N2	0.122000	0.250000	0.417000
C221	C22	0.395000	0.250000	0.709000
C231	C23	0.326000	0.250000	0.627000
C241	C24	0.193000	0.250000	0.480000
C251	C25	0.427000	0.250000	0.139000
C261	C26	0.374000	0.250000	0.267000
Ca31	Ca3	0.019500	0.250000	0.605800
N31	N3	0.622000	0.250000	0.083000
C271	C27	0.895000	0.250000	0.791000
C281	C28	0.826000	0.250000	0.873000
C291	C29	0.693000	0.250000	0.020000
C301	C30	0.927000	0.250000	0.361000
C311	C31	0.874000	0.250000	0.233000
Ca41	Ca4	0.480500	0.750000	0.105800
N41	N4	0.878000	0.750000	0.583000
C321	C32	0.605000	0.750000	0.291000
C331	C33	0.674000	0.750000	0.373000
C341	C34	0.807000	0.750000	0.520000
C351	C35	0.573000	0.750000	0.861000
C361	C36	0.626000	0.750000	0.733000
