data_VAXMUF_clean_PM
_symmetry_space_group_name_H-M	'P1'
_cell_length_a	12.559900
_cell_length_b	12.748100
_cell_length_c	13.367000
_cell_angle_alpha	99.749000
_cell_angle_beta	105.537000
_cell_angle_gamma	111.878000
_symmetry_Int_Tables_number 1

loop_
_symmetry_equiv_pos_as_xyz
'x,y,z'

loop_
_atom_site_label
_atom_site_type_symbol
_atom_site_fract_x
_atom_site_fract_y
_atom_site_fract_z
N11	N1	0.608800	0.426700	0.563800
N21	N2	0.353300	0.345100	0.464300
C11	C1	0.635000	0.412200	0.661800
C21	C2	0.673600	0.382400	0.519400
C31	C3	0.692800	0.707100	0.469600
C41	C4	0.708500	0.740700	0.632900
N31	N3	0.714000	0.366100	0.676500
H11	H1	0.602300	0.431600	0.712900
N41	N4	0.740800	0.346600	0.585500
H21	H2	0.671000	0.377700	0.448500
N51	N5	0.776300	0.816400	0.523900
H31	H3	0.669600	0.671800	0.395500
N61	N6	0.786200	0.840500	0.629400
H41	H4	0.696400	0.729400	0.696600
N71	N7	0.869900	0.024200	0.893500
N81	N8	0.967700	0.081600	0.125500
C51	C5	0.775100	0.345800	0.775300
C61	C6	0.846600	0.908000	0.483800
C71	C7	0.749500	0.962000	0.862000
C81	C8	0.882600	0.095800	0.828500
C91	C9	0.970100	0.187700	0.148600
C101	C10	0.928600	0.035900	0.199600
H51	H5	0.800400	0.284400	0.756200
H61	H6	0.717600	0.318300	0.811800
C111	C11	0.886500	0.457500	0.852000
C121	C12	0.798800	0.001200	0.477600
H71	H7	0.932400	0.946100	0.531800
H81	H8	0.842200	0.871600	0.412000
N91	N9	0.694200	0.994000	0.781500
H91	H9	0.709800	0.904800	0.891300
N101	N10	0.778400	0.080200	0.758700
H101	H10	0.958700	0.151100	0.833300
N111	N11	0.931600	0.203400	0.229800
H111	H11	0.995500	0.243300	0.112500
N121	N12	0.903400	0.105700	0.264900
H121	H12	0.920000	0.961500	0.204500
C131	C13	0.946000	0.442600	0.961000
H131	H13	0.862200	0.520800	0.865000
H141	H14	0.946900	0.480700	0.817500
H151	H15	0.850100	0.061800	0.453500
H161	H16	0.805200	0.038800	0.549800
C141	C14	0.667400	0.950400	0.401500
C151	C15	0.562800	0.935000	0.709600
C161	C16	0.911800	0.303700	0.278500
H171	H17	0.884800	0.415900	0.994200
H181	H18	0.974300	0.382200	0.948500
C171	C17	0.622000	0.040600	0.385600
H191	H19	0.615400	0.895200	0.429600
H201	H20	0.659700	0.906000	0.331300
C181	C18	0.514900	0.020300	0.688700
H211	H21	0.553500	0.885900	0.641000
H221	H22	0.515200	0.883800	0.743300
C191	C19	0.988700	0.364300	0.396800
H231	H23	0.825700	0.275400	0.269800
H241	H24	0.929700	0.361300	0.238900
H251	H25	0.632000	0.087600	0.455600
H261	H26	0.669900	0.093200	0.353000
H271	H27	0.562400	0.071300	0.654700
H281	H28	0.524600	0.069700	0.757400
C201	C20	0.966800	0.470200	0.439700
H291	H29	0.075100	0.391000	0.406800
H301	H30	0.968400	0.308700	0.437800
H311	H31	0.992900	0.527900	0.401700
H321	H32	0.879200	0.443800	0.423100
N131	N13	0.391200	0.573300	0.436200
N141	N14	0.646700	0.654900	0.535700
C211	C21	0.365000	0.587800	0.338200
C221	C22	0.326400	0.617600	0.480600
C231	C23	0.307200	0.292900	0.530400
C241	C24	0.291500	0.259300	0.367100
N151	N15	0.286000	0.633900	0.323500
H331	H33	0.397700	0.568400	0.287100
N161	N16	0.259200	0.653400	0.414500
H341	H34	0.329000	0.622300	0.551500
N171	N17	0.223700	0.183600	0.476100
H351	H35	0.330400	0.328200	0.604500
N181	N18	0.213800	0.159500	0.370600
H361	H36	0.303600	0.270600	0.303400
N191	N19	0.130100	0.975800	0.106500
N201	N20	0.032300	0.918400	0.874500
C251	C25	0.224900	0.654200	0.224700
C261	C26	0.153400	0.092000	0.516200
C271	C27	0.250500	0.038000	0.138000
C281	C28	0.117400	0.904200	0.171500
C291	C29	0.029900	0.812300	0.851400
C301	C30	0.071400	0.964100	0.800400
H371	H37	0.199600	0.715600	0.243800
H381	H38	0.282400	0.681700	0.188200
C311	C31	0.113500	0.542500	0.148000
C321	C32	0.201200	0.998800	0.522400
H391	H39	0.067600	0.053900	0.468200
H401	H40	0.157800	0.128400	0.588000
N211	N21	0.305800	0.006000	0.218500
H411	H41	0.290200	0.095200	0.108700
N221	N22	0.221600	0.919800	0.241300
H421	H42	0.041300	0.848900	0.166700
N231	N23	0.068400	0.796600	0.770200
H431	H43	0.004500	0.756700	0.887500
N241	N24	0.096600	0.894300	0.735100
H441	H44	0.080000	0.038500	0.795500
C331	C33	0.054000	0.557400	0.039000
H451	H45	0.137800	0.479200	0.135000
H461	H46	0.053100	0.519300	0.182500
H471	H47	0.149900	0.938200	0.546500
H481	H48	0.194800	0.961200	0.450200
C341	C34	0.332600	0.049600	0.598500
C351	C35	0.437200	0.065000	0.290400
C361	C36	0.088200	0.696300	0.721500
H491	H49	0.115200	0.584100	0.005800
H501	H50	0.025700	0.617800	0.051500
C371	C37	0.378000	0.959400	0.614400
H511	H51	0.384600	0.104800	0.570400
H521	H52	0.340300	0.094000	0.668700
C381	C38	0.485100	0.979700	0.311300
H531	H53	0.446500	0.114100	0.359000
H541	H54	0.484800	0.116200	0.256700
C391	C39	0.011300	0.635700	0.603200
H551	H55	0.174300	0.724600	0.730200
H561	H56	0.070300	0.638700	0.761100
H571	H57	0.368000	0.912400	0.544400
H581	H58	0.330100	0.906800	0.647000
H591	H59	0.437600	0.928700	0.345300
H601	H60	0.475400	0.930300	0.242600
C401	C40	0.033200	0.529800	0.560300
H611	H61	0.924900	0.609000	0.593200
H621	H62	0.031600	0.691300	0.562200
H631	H63	0.007100	0.472100	0.598300
H641	H64	0.120800	0.556200	0.576900
Cu11	Cu1	0.000000	0.000000	0.000000
Cu21	Cu2	0.500000	0.500000	0.500000
