data_VAYWEZ_clean_PM
_symmetry_space_group_name_H-M	'P1'
_cell_length_a	13.119000
_cell_length_b	22.809000
_cell_length_c	11.840000
_cell_angle_alpha	90.000000
_cell_angle_beta	91.946000
_cell_angle_gamma	90.000000
_symmetry_Int_Tables_number 1

loop_
_symmetry_equiv_pos_as_xyz
'x,y,z'

loop_
_atom_site_label
_atom_site_type_symbol
_atom_site_fract_x
_atom_site_fract_y
_atom_site_fract_z
Ag11	Ag1	0.240280	0.213300	0.275070
Ag21	Ag2	0.883290	0.201690	0.609740
N11	N1	0.149500	0.180400	0.408800
N21	N2	0.790400	0.268000	0.929800
N31	N3	0.803900	0.237900	0.752400
N41	N4	0.737500	0.304100	0.860600
N51	N5	0.141600	0.124100	0.447900
N61	N6	0.009400	0.169800	0.506800
C11	C1	0.553500	0.049600	0.761200
H11	H1	0.621200	0.056700	0.782800
N71	N7	0.512900	0.056300	0.659800
N81	N8	0.416600	0.042000	0.663000
C21	C2	0.397700	0.026600	0.766400
H21	H2	0.335000	0.014400	0.792300
N91	N9	0.482300	0.031300	0.827200
C31	C3	0.355100	0.031400	0.558000
H31	H3	0.398600	0.021600	0.496200
H41	H4	0.307300	0.999600	0.568300
C41	C4	0.300900	0.086600	0.535400
H51	H5	0.267500	0.099100	0.603100
H61	H6	0.349700	0.116700	0.516200
C51	C5	0.066500	0.204800	0.444900
H71	H7	0.048800	0.243500	0.428600
C61	C6	0.679700	0.352300	0.903900
H81	H8	0.715500	0.368100	0.970100
H91	H9	0.675100	0.383000	0.847300
C71	C7	0.571700	0.334200	0.935800
H101	H10	0.537600	0.315600	0.871300
H111	H11	0.533200	0.368900	0.954500
C81	C8	0.220800	0.080400	0.438000
H121	H12	0.190800	0.041600	0.439800
H131	H13	0.253400	0.085100	0.366300
C91	C9	0.745700	0.285700	0.755100
H141	H14	0.715200	0.303700	0.692000
C101	C10	0.830500	0.230400	0.860300
H151	H15	0.874300	0.200700	0.885000
C111	C11	0.057500	0.119000	0.507100
H161	H16	0.036200	0.085000	0.542900
C121	C12	0.572600	0.293200	0.033100
H171	H17	0.600500	0.313700	0.099000
H181	H18	0.618600	0.261100	0.017300
N101	N10	0.475900	0.268900	0.061100
N111	N11	0.419300	0.240500	0.980700
C131	C13	0.430100	0.265800	0.159500
H191	H19	0.455800	0.281800	0.226900
C141	C14	0.341200	0.222900	0.039200
H201	H20	0.287300	0.201800	0.006200
N121	N12	0.344100	0.237200	0.148600
Ag31	Ag3	0.759720	0.786700	0.724930
Ag41	Ag4	0.116710	0.798310	0.390260
N131	N13	0.850500	0.819600	0.591200
N141	N14	0.209600	0.732000	0.070200
N151	N15	0.196100	0.762100	0.247600
N161	N16	0.262500	0.695900	0.139400
N171	N17	0.858400	0.875900	0.552100
N181	N18	0.990600	0.830200	0.493200
C151	C15	0.446500	0.950400	0.238800
H211	H21	0.378800	0.943300	0.217200
N191	N19	0.487100	0.943700	0.340200
N201	N20	0.583400	0.958000	0.337000
C161	C16	0.602300	0.973400	0.233600
H221	H22	0.665000	0.985600	0.207700
N211	N21	0.517700	0.968700	0.172800
C171	C17	0.644900	0.968600	0.442000
H231	H23	0.601400	0.978400	0.503800
H241	H24	0.692700	0.000400	0.431700
C181	C18	0.699100	0.913400	0.464600
H251	H25	0.732500	0.900900	0.396900
H261	H26	0.650300	0.883300	0.483800
C191	C19	0.933500	0.795200	0.555100
H271	H27	0.951200	0.756500	0.571400
C201	C20	0.320300	0.647700	0.096100
H281	H28	0.284500	0.631900	0.029900
H291	H29	0.324900	0.617000	0.152700
C211	C21	0.428300	0.665800	0.064200
H301	H30	0.462400	0.684400	0.128700
H311	H31	0.466800	0.631100	0.045500
C221	C22	0.779200	0.919600	0.562000
H321	H32	0.809200	0.958400	0.560200
H331	H33	0.746600	0.914900	0.633700
C231	C23	0.254300	0.714300	0.244900
H341	H34	0.284800	0.696300	0.308000
C241	C24	0.169500	0.769600	0.139700
H351	H35	0.125700	0.799300	0.115000
C251	C25	0.942500	0.881000	0.492900
H361	H36	0.963800	0.915000	0.457100
C261	C26	0.427400	0.706800	0.966900
H371	H37	0.399500	0.686300	0.901000
H381	H38	0.381400	0.738900	0.982700
N221	N22	0.524100	0.731100	0.938900
N231	N23	0.580700	0.759500	0.019300
C271	C27	0.569900	0.734200	0.840500
H391	H39	0.544200	0.718200	0.773100
C281	C28	0.658800	0.777100	0.960800
H401	H40	0.712700	0.798200	0.993800
N241	N24	0.655900	0.762800	0.851400
Ag51	Ag5	0.500000	0.000000	0.000000
Ag61	Ag6	0.759720	0.713300	0.224930
Ag71	Ag7	0.116710	0.701690	0.890260
N251	N25	0.850500	0.680400	0.091200
N261	N26	0.209600	0.768000	0.570200
N271	N27	0.196100	0.737900	0.747600
N281	N28	0.262500	0.804100	0.639400
N291	N29	0.858400	0.624100	0.052100
N301	N30	0.990600	0.669800	0.993200
C291	C29	0.446500	0.549600	0.738800
H411	H41	0.378800	0.556700	0.717200
N311	N31	0.487100	0.556300	0.840200
N321	N32	0.583400	0.542000	0.837000
C301	C30	0.602300	0.526600	0.733600
H421	H42	0.665000	0.514400	0.707700
N331	N33	0.517700	0.531300	0.672800
C311	C31	0.644900	0.531400	0.942000
H431	H43	0.601400	0.521600	0.003800
H441	H44	0.692700	0.499600	0.931700
C321	C32	0.699100	0.586600	0.964600
H451	H45	0.732500	0.599100	0.896900
H461	H46	0.650300	0.616700	0.983800
C331	C33	0.933500	0.704800	0.055100
H471	H47	0.951200	0.743500	0.071400
C341	C34	0.320300	0.852300	0.596100
H481	H48	0.284500	0.868100	0.529900
H491	H49	0.324900	0.883000	0.652700
C351	C35	0.428300	0.834200	0.564200
H501	H50	0.462400	0.815600	0.628700
H511	H51	0.466800	0.868900	0.545500
C361	C36	0.779200	0.580400	0.062000
H521	H52	0.809200	0.541600	0.060200
H531	H53	0.746600	0.585100	0.133700
C371	C37	0.254300	0.785700	0.744900
H541	H54	0.284800	0.803700	0.808000
C381	C38	0.169500	0.730400	0.639700
H551	H55	0.125700	0.700700	0.615000
C391	C39	0.942500	0.619000	0.992900
H561	H56	0.963800	0.585000	0.957100
C401	C40	0.427400	0.793200	0.466900
H571	H57	0.399500	0.813700	0.401000
H581	H58	0.381400	0.761100	0.482700
N341	N34	0.524100	0.768900	0.438900
N351	N35	0.580700	0.740500	0.519300
C411	C41	0.569900	0.765800	0.340500
H591	H59	0.544200	0.781800	0.273100
C421	C42	0.658800	0.722900	0.460800
H601	H60	0.712700	0.701800	0.493800
N361	N36	0.655900	0.737200	0.351400
Ag81	Ag8	0.240280	0.286700	0.775070
Ag91	Ag9	0.883290	0.298310	0.109740
N371	N37	0.149500	0.319600	0.908800
N381	N38	0.790400	0.232000	0.429800
N391	N39	0.803900	0.262100	0.252400
N401	N40	0.737500	0.195900	0.360600
N411	N41	0.141600	0.375900	0.947900
N421	N42	0.009400	0.330200	0.006800
C431	C43	0.553500	0.450400	0.261200
H611	H61	0.621200	0.443300	0.282800
N431	N43	0.512900	0.443700	0.159800
N441	N44	0.416600	0.458000	0.163000
C441	C44	0.397700	0.473400	0.266400
H621	H62	0.335000	0.485600	0.292300
N451	N45	0.482300	0.468700	0.327200
C451	C45	0.355100	0.468600	0.058000
H631	H63	0.398600	0.478400	0.996200
H641	H64	0.307300	0.500400	0.068300
C461	C46	0.300900	0.413400	0.035400
H651	H65	0.267500	0.400900	0.103100
H661	H66	0.349700	0.383300	0.016200
C471	C47	0.066500	0.295200	0.944900
H671	H67	0.048800	0.256500	0.928600
C481	C48	0.679700	0.147700	0.403900
H681	H68	0.715500	0.131900	0.470100
H691	H69	0.675100	0.117000	0.347300
C491	C49	0.571700	0.165800	0.435800
H701	H70	0.537600	0.184400	0.371300
H711	H71	0.533200	0.131100	0.454500
C501	C50	0.220800	0.419600	0.938000
H721	H72	0.190800	0.458400	0.939800
H731	H73	0.253400	0.414900	0.866300
C511	C51	0.745700	0.214300	0.255100
H741	H74	0.715200	0.196300	0.192000
C521	C52	0.830500	0.269600	0.360300
H751	H75	0.874300	0.299300	0.385000
C531	C53	0.057500	0.381000	0.007100
H761	H76	0.036200	0.415000	0.042900
C541	C54	0.572600	0.206800	0.533100
H771	H77	0.600500	0.186300	0.599000
H781	H78	0.618600	0.238900	0.517300
N461	N46	0.475900	0.231100	0.561100
N471	N47	0.419300	0.259500	0.480700
C551	C55	0.430100	0.234200	0.659500
H791	H79	0.455800	0.218200	0.726900
C561	C56	0.341200	0.277100	0.539200
H801	H80	0.287300	0.298200	0.506200
N481	N48	0.344100	0.262800	0.648600
Ag101	Ag10	0.500000	0.500000	0.500000
