data_VAZKUE_clean_PM
_symmetry_space_group_name_H-M	'P1'
_cell_length_a	7.478600
_cell_length_b	9.832000
_cell_length_c	14.933300
_cell_angle_alpha	90.000000
_cell_angle_beta	100.078000
_cell_angle_gamma	90.000000
_symmetry_Int_Tables_number 1

loop_
_symmetry_equiv_pos_as_xyz
'x,y,z'

loop_
_atom_site_label
_atom_site_type_symbol
_atom_site_fract_x
_atom_site_fract_y
_atom_site_fract_z
Pr11	Pr1	0.631390	0.444530	0.356340
Pr21	Pr2	0.868610	0.944530	0.143660
Pr31	Pr3	0.368610	0.555470	0.643660
Pr41	Pr4	0.131390	0.055470	0.856340
H11	H1	0.721400	0.953200	0.622600
H21	H2	0.821600	0.163000	0.545300
H31	H3	0.778600	0.453200	0.877400
H41	H4	0.678400	0.663000	0.954700
H51	H5	0.278600	0.046800	0.377400
H61	H6	0.178400	0.837000	0.454700
H71	H7	0.221400	0.546800	0.122600
H81	H8	0.321600	0.337000	0.045300
C11	C1	0.606200	0.729800	0.495400
C21	C2	0.685900	0.867800	0.495800
C31	C3	0.728100	0.962700	0.561300
C41	C4	0.785100	0.080200	0.518000
C51	C5	0.775400	0.047000	0.428900
C61	C6	0.816000	0.123400	0.349700
C71	C7	0.958300	0.465200	0.538400
C81	C8	0.893800	0.229800	0.004600
C91	C9	0.814100	0.367800	0.004200
C101	C10	0.771900	0.462700	0.938700
C111	C11	0.714900	0.580200	0.982000
C121	C12	0.724600	0.547000	0.071100
C131	C13	0.684000	0.623400	0.150300
C141	C14	0.541700	0.965200	0.961600
C151	C15	0.393800	0.270200	0.504600
C161	C16	0.314100	0.132200	0.504200
C171	C17	0.271900	0.037300	0.438700
C181	C18	0.214900	0.919800	0.482000
C191	C19	0.224600	0.953000	0.571100
C201	C20	0.184000	0.876600	0.650300
C211	C21	0.041700	0.534800	0.461600
C221	C22	0.106200	0.770200	0.995400
C231	C23	0.185900	0.632200	0.995800
C241	C24	0.228100	0.537300	0.061300
C251	C25	0.285100	0.419800	0.018000
C261	C26	0.275400	0.453000	0.928900
C271	C27	0.316000	0.376600	0.849700
C281	C28	0.458300	0.034800	0.038400
O11	O1	0.795500	0.428300	0.518700
O21	O2	0.580900	0.665000	0.421600
O31	O3	0.565800	0.690600	0.569100
O41	O4	0.716500	0.916000	0.414100
O51	O5	0.838800	0.251000	0.359000
O61	O6	0.826700	0.059000	0.278900
O71	O7	0.060000	0.451000	0.614100
O81	O8	0.704500	0.928300	0.981300
O91	O9	0.919100	0.165000	0.078400
O101	O10	0.934200	0.190600	0.930900
O111	O11	0.783500	0.416000	0.085900
O121	O12	0.661200	0.751000	0.141000
O131	O13	0.673300	0.559000	0.221100
O141	O14	0.440000	0.951000	0.885900
O151	O15	0.204500	0.571700	0.481300
O161	O16	0.419100	0.335000	0.578400
O171	O17	0.434200	0.309400	0.430900
O181	O18	0.283500	0.084000	0.585900
O191	O19	0.161200	0.749000	0.641000
O201	O20	0.173300	0.941000	0.721100
O211	O21	0.940000	0.549000	0.385900
O221	O22	0.295500	0.071700	0.018700
O231	O23	0.080900	0.835000	0.921600
O241	O24	0.065800	0.809400	0.069100
O251	O25	0.216500	0.584000	0.914100
O261	O26	0.338800	0.249000	0.859000
O271	O27	0.326700	0.441000	0.778900
O281	O28	0.560000	0.049000	0.114100
