data_VAZLAL_clean_PM
_symmetry_space_group_name_H-M	'P1'
_cell_length_a	7.412800
_cell_length_b	9.771000
_cell_length_c	14.838300
_cell_angle_alpha	90.000000
_cell_angle_beta	99.978800
_cell_angle_gamma	90.000000
_symmetry_Int_Tables_number 1

loop_
_symmetry_equiv_pos_as_xyz
'x,y,z'

loop_
_atom_site_label
_atom_site_type_symbol
_atom_site_fract_x
_atom_site_fract_y
_atom_site_fract_z
Nd11	Nd1	0.632460	0.444700	0.356600
Nd21	Nd2	0.867540	0.944700	0.143400
Nd31	Nd3	0.367540	0.555300	0.643400
Nd41	Nd4	0.132460	0.055300	0.856600
H11	H1	0.722700	0.953500	0.623100
H21	H2	0.818000	0.165200	0.545200
H31	H3	0.777300	0.453500	0.876900
H41	H4	0.682000	0.665200	0.954800
H51	H5	0.277300	0.046500	0.376900
H61	H6	0.182000	0.834800	0.454800
H71	H7	0.222700	0.546500	0.123100
H81	H8	0.318000	0.334800	0.045200
C11	C1	0.607500	0.728800	0.496100
C21	C2	0.686400	0.867200	0.496200
C31	C3	0.728500	0.963000	0.561300
C41	C4	0.783500	0.081300	0.518000
C51	C5	0.775600	0.047300	0.428800
C61	C6	0.815800	0.123900	0.349300
C71	C7	0.957300	0.465900	0.538200
C81	C8	0.892500	0.228800	0.003900
C91	C9	0.813600	0.367200	0.003800
C101	C10	0.771500	0.463000	0.938700
C111	C11	0.716500	0.581300	0.982000
C121	C12	0.724400	0.547300	0.071200
C131	C13	0.684200	0.623900	0.150700
C141	C14	0.542700	0.965900	0.961800
C151	C15	0.392500	0.271200	0.503900
C161	C16	0.313600	0.132800	0.503800
C171	C17	0.271500	0.037000	0.438700
C181	C18	0.216500	0.918700	0.482000
C191	C19	0.224400	0.952700	0.571200
C201	C20	0.184200	0.876100	0.650700
C211	C21	0.042700	0.534100	0.461800
C221	C22	0.107500	0.771200	0.996100
C231	C23	0.186400	0.632800	0.996200
C241	C24	0.228500	0.537000	0.061300
C251	C25	0.283500	0.418700	0.018000
C261	C26	0.275600	0.452700	0.928800
C271	C27	0.315800	0.376100	0.849300
C281	C28	0.457300	0.034100	0.038200
O11	O1	0.794600	0.427500	0.518500
O21	O2	0.582700	0.663700	0.422100
O31	O3	0.564600	0.689700	0.569500
O41	O4	0.716400	0.915400	0.413800
O51	O5	0.837800	0.251200	0.358500
O61	O6	0.826400	0.059400	0.278400
O71	O7	0.059000	0.451200	0.614100
O81	O8	0.705400	0.927500	0.981500
O91	O9	0.917300	0.163700	0.077900
O101	O10	0.935400	0.189700	0.930500
O111	O11	0.783600	0.415400	0.086200
O121	O12	0.662200	0.751200	0.141500
O131	O13	0.673600	0.559400	0.221600
O141	O14	0.441000	0.951200	0.885900
O151	O15	0.205400	0.572500	0.481500
O161	O16	0.417300	0.336300	0.577900
O171	O17	0.435400	0.310300	0.430500
O181	O18	0.283600	0.084600	0.586200
O191	O19	0.162200	0.748800	0.641500
O201	O20	0.173600	0.940600	0.721600
O211	O21	0.941000	0.548800	0.385900
O221	O22	0.294600	0.072500	0.018500
O231	O23	0.082700	0.836300	0.922100
O241	O24	0.064600	0.810300	0.069500
O251	O25	0.216400	0.584600	0.913800
O261	O26	0.337800	0.248800	0.858500
O271	O27	0.326400	0.440600	0.778400
O281	O28	0.559000	0.048800	0.114100
