data_VAZMIU_clean_PM
_symmetry_space_group_name_H-M	'P1'
_cell_length_a	9.854600
_cell_length_b	9.854600
_cell_length_c	13.309500
_cell_angle_alpha	85.161300
_cell_angle_beta	70.351200
_cell_angle_gamma	115.591000
_symmetry_Int_Tables_number 1

loop_
_symmetry_equiv_pos_as_xyz
'x,y,z'

loop_
_atom_site_label
_atom_site_type_symbol
_atom_site_fract_x
_atom_site_fract_y
_atom_site_fract_z
Ho11	Ho1	0.265260	0.538790	0.002870
Ho21	Ho2	0.041660	0.268130	0.497130
Ho31	Ho3	0.734740	0.461210	0.997130
Ho41	Ho4	0.958340	0.731870	0.502870
H11	H1	0.989700	0.053800	0.147700
H21	H2	0.821700	0.761300	0.179400
H31	H3	0.701500	0.137400	0.352300
H41	H4	0.440700	0.001100	0.320600
H51	H5	0.010300	0.946200	0.852300
H61	H6	0.178300	0.238700	0.820600
H71	H7	0.298500	0.862600	0.647700
H81	H8	0.559300	0.998900	0.679400
C11	C1	0.881800	0.231800	0.039000
C21	C2	0.688400	0.816600	0.110200
C31	C3	0.900100	0.002200	0.130100
C41	C4	0.559700	0.676800	0.098500
C51	C5	0.805900	0.838100	0.148000
C61	C6	0.066200	0.410400	0.265200
C71	C7	0.835200	0.068200	0.083000
C81	C8	0.770800	0.920800	0.461000
C91	C9	0.426800	0.798600	0.389800
C101	C10	0.632300	0.030200	0.369900
C111	C11	0.275300	0.658200	0.401500
C121	C12	0.486100	0.953900	0.352000
C131	C13	0.175600	0.331400	0.234800
C141	C14	0.651200	0.918200	0.417000
C151	C15	0.118200	0.768200	0.961000
C161	C16	0.311600	0.183400	0.889800
C171	C17	0.099900	0.997800	0.869900
C181	C18	0.440300	0.323200	0.901500
C191	C19	0.194100	0.161900	0.852000
C201	C20	0.933800	0.589600	0.734800
C211	C21	0.164800	0.931800	0.917000
C221	C22	0.229200	0.079200	0.539000
C231	C23	0.573200	0.201400	0.610200
C241	C24	0.367700	0.969800	0.630100
C251	C25	0.724700	0.341800	0.598500
C261	C26	0.513900	0.046100	0.648000
C271	C27	0.824400	0.668600	0.765200
C281	C28	0.348800	0.081800	0.583000
O11	O1	0.011600	0.335600	0.039200
O21	O2	0.788100	0.255700	0.004400
O31	O3	0.077600	0.500200	0.186800
O41	O4	0.582700	0.560900	0.097800
O51	O5	0.701700	0.956700	0.071600
O61	O6	0.441500	0.682900	0.086800
O71	O7	0.973600	0.375600	0.364600
O81	O8	0.874800	0.050800	0.460800
O91	O9	0.760100	0.792500	0.495600
O101	O10	0.187000	0.264400	0.313200
O111	O11	0.158700	0.680500	0.402200
O121	O12	0.528300	0.773300	0.428400
O131	O13	0.269700	0.528300	0.413200
O141	O14	0.240200	0.338200	0.135400
O151	O15	0.988400	0.664400	0.960800
O161	O16	0.211900	0.744300	0.995600
O171	O17	0.922400	0.499800	0.813200
O181	O18	0.417300	0.439100	0.902200
O191	O19	0.298300	0.043300	0.928400
O201	O20	0.558500	0.317100	0.913200
O211	O21	0.026400	0.624400	0.635400
O221	O22	0.125200	0.949200	0.539200
O231	O23	0.239900	0.207500	0.504400
O241	O24	0.813000	0.735600	0.686800
O251	O25	0.841300	0.319500	0.597800
O261	O26	0.471700	0.226700	0.571600
O271	O27	0.730300	0.471700	0.586800
O281	O28	0.759800	0.661800	0.864600
