data_VAZMEQ_clean_PM
_symmetry_space_group_name_H-M	'P1'
_cell_length_a	9.884600
_cell_length_b	9.884600
_cell_length_c	13.352600
_cell_angle_alpha	85.324600
_cell_angle_beta	70.178100
_cell_angle_gamma	115.583000
_symmetry_Int_Tables_number 1

loop_
_symmetry_equiv_pos_as_xyz
'x,y,z'

loop_
_atom_site_label
_atom_site_type_symbol
_atom_site_fract_x
_atom_site_fract_y
_atom_site_fract_z
Dy11	Dy1	0.265340	0.538840	0.002620
Dy21	Dy2	0.041460	0.267960	0.497380
Dy31	Dy3	0.734660	0.461160	0.997380
Dy41	Dy4	0.958540	0.732040	0.502620
H11	H1	0.990300	0.052800	0.147300
H21	H2	0.820300	0.762000	0.180300
H31	H3	0.700100	0.137600	0.352700
H41	H4	0.442300	0.000600	0.319700
H51	H5	0.009700	0.947200	0.852700
H61	H6	0.179700	0.238000	0.819700
H71	H7	0.299900	0.862400	0.647300
H81	H8	0.557700	0.999400	0.680300
C11	C1	0.881200	0.231000	0.038800
C21	C2	0.688000	0.817300	0.110100
C31	C3	0.900400	0.001700	0.130300
C41	C4	0.560400	0.677400	0.098200
C51	C5	0.805500	0.839000	0.148500
C61	C6	0.065900	0.410200	0.264700
C71	C7	0.834100	0.068100	0.083000
C81	C8	0.769800	0.920000	0.461200
C91	C9	0.427400	0.798100	0.389900
C101	C10	0.632000	0.030700	0.369700
C111	C11	0.275600	0.658600	0.401800
C121	C12	0.487500	0.954000	0.351500
C131	C13	0.174900	0.330600	0.235300
C141	C14	0.651100	0.917100	0.417000
C151	C15	0.118800	0.769000	0.961200
C161	C16	0.312000	0.182700	0.889900
C171	C17	0.099600	0.998300	0.869700
C181	C18	0.439600	0.322600	0.901800
C191	C19	0.194500	0.161000	0.851500
C201	C20	0.934100	0.589800	0.735300
C211	C21	0.165900	0.931900	0.917000
C221	C22	0.230200	0.080000	0.538800
C231	C23	0.572600	0.201900	0.610100
C241	C24	0.368000	0.969300	0.630300
C251	C25	0.724400	0.341400	0.598200
C261	C26	0.512500	0.046000	0.648500
C271	C27	0.825100	0.669400	0.764700
C281	C28	0.348900	0.082900	0.583000
O11	O1	0.011700	0.334700	0.038600
O21	O2	0.787200	0.254500	0.004300
O31	O3	0.076600	0.499100	0.187300
O41	O4	0.582000	0.560700	0.098500
O51	O5	0.701100	0.956000	0.071900
O61	O6	0.441500	0.683400	0.087900
O71	O7	0.973300	0.375700	0.364200
O81	O8	0.873300	0.050300	0.461400
O91	O9	0.758800	0.791500	0.495700
O101	O10	0.186400	0.263900	0.312700
O111	O11	0.159200	0.680500	0.401500
O121	O12	0.527900	0.773000	0.428100
O131	O13	0.271300	0.529400	0.412100
O141	O14	0.239900	0.337500	0.135800
O151	O15	0.988300	0.665300	0.961400
O161	O16	0.212800	0.745500	0.995700
O171	O17	0.923400	0.500900	0.812700
O181	O18	0.418000	0.439300	0.901500
O191	O19	0.298900	0.044000	0.928100
O201	O20	0.558500	0.316600	0.912100
O211	O21	0.026700	0.624300	0.635800
O221	O22	0.126700	0.949700	0.538600
O231	O23	0.241200	0.208500	0.504300
O241	O24	0.813600	0.736100	0.687300
O251	O25	0.840800	0.319500	0.598500
O261	O26	0.472100	0.227000	0.571900
O271	O27	0.728700	0.470600	0.587900
O281	O28	0.760100	0.662500	0.864200
