data_VAZROF_clean_PM
_symmetry_space_group_name_H-M	'P1'
_cell_length_a	11.479000
_cell_length_b	24.451000
_cell_length_c	16.299000
_cell_angle_alpha	90.000000
_cell_angle_beta	90.000000
_cell_angle_gamma	90.000000
_symmetry_Int_Tables_number 1

loop_
_symmetry_equiv_pos_as_xyz
'x,y,z'

loop_
_atom_site_label
_atom_site_type_symbol
_atom_site_fract_x
_atom_site_fract_y
_atom_site_fract_z
Fe11	Fe1	0.644560	0.454280	0.346450
Fe21	Fe2	0.644560	0.545720	0.153550
Fe31	Fe3	0.644560	0.954280	0.653550
Fe41	Fe4	0.644560	0.045720	0.846450
H11	H1	0.437300	0.513600	0.430800
H21	H2	0.235000	0.514100	0.431700
H31	H3	0.233700	0.399400	0.254800
H41	H4	0.434900	0.399200	0.253900
H51	H5	0.057200	0.523900	0.411100
H61	H6	0.855800	0.524100	0.409600
H71	H7	0.855400	0.386100	0.276100
H81	H8	0.057200	0.385000	0.279100
H91	H9	0.647400	0.613800	0.505400
H101	H10	0.638900	0.655100	0.268600
H111	H11	0.644200	0.747000	0.301600
H121	H12	0.655500	0.684600	0.609100
H131	H13	0.658000	0.775900	0.644600
H141	H14	0.652700	0.817700	0.406900
H151	H15	0.437300	0.486400	0.069200
H161	H16	0.235000	0.485900	0.068300
H171	H17	0.233700	0.600600	0.245200
H181	H18	0.434900	0.600800	0.246100
H191	H19	0.057200	0.476100	0.088900
H201	H20	0.855800	0.475900	0.090400
H211	H21	0.855400	0.613900	0.223900
H221	H22	0.057200	0.615000	0.220900
H231	H23	0.647400	0.386200	0.994600
H241	H24	0.638900	0.344900	0.231400
H251	H25	0.644200	0.253000	0.198400
H261	H26	0.655500	0.315400	0.890900
H271	H27	0.658000	0.224100	0.855400
H281	H28	0.652700	0.182300	0.093100
H291	H29	0.437300	0.013600	0.569200
H301	H30	0.235000	0.014100	0.568300
H311	H31	0.233700	0.899400	0.745200
H321	H32	0.434900	0.899200	0.746100
H331	H33	0.057200	0.023900	0.588900
H341	H34	0.855800	0.024100	0.590400
H351	H35	0.855400	0.886100	0.723900
H361	H36	0.057200	0.885000	0.720900
H371	H37	0.647400	0.113800	0.494600
H381	H38	0.638900	0.155100	0.731400
H391	H39	0.644200	0.247000	0.698400
H401	H40	0.655500	0.184600	0.390900
H411	H41	0.658000	0.275900	0.355400
H421	H42	0.652700	0.317700	0.593100
H431	H43	0.437300	0.986400	0.930800
H441	H44	0.235000	0.985900	0.931700
H451	H45	0.233700	0.100600	0.754800
H461	H46	0.434900	0.100800	0.753900
H471	H47	0.057200	0.976100	0.911100
H481	H48	0.855800	0.975900	0.909600
H491	H49	0.855400	0.113900	0.776100
H501	H50	0.057200	0.115000	0.779100
H511	H51	0.647400	0.886200	0.005400
H521	H52	0.638900	0.844900	0.768600
H531	H53	0.644200	0.753000	0.801600
H541	H54	0.655500	0.815400	0.109100
H551	H55	0.658000	0.724100	0.144600
H561	H56	0.652700	0.682300	0.906900
C11	C1	0.396200	0.490800	0.395400
C21	C2	0.274900	0.491200	0.395900
C31	C3	0.213500	0.457100	0.342800
C41	C4	0.274400	0.422400	0.289900
C51	C5	0.394900	0.422200	0.289400
C61	C6	0.078200	0.454400	0.344600
C71	C7	0.017000	0.496200	0.384200
C81	C8	0.896300	0.496200	0.383400
C91	C9	0.895800	0.413500	0.303800
C101	C10	0.016900	0.413100	0.305000
C111	C11	0.643800	0.568200	0.352500
C121	C12	0.646900	0.640500	0.464800
C131	C13	0.642900	0.625600	0.382800
C141	C14	0.641800	0.665500	0.323400
C151	C15	0.645000	0.720600	0.342600
C161	C16	0.649300	0.735200	0.424500
C171	C17	0.650200	0.695400	0.486200
C181	C18	0.654200	0.711200	0.568300
C191	C19	0.656300	0.765800	0.589500
C201	C20	0.655900	0.806000	0.528900
C211	C21	0.652700	0.790900	0.447300
C221	C22	0.652900	0.868000	0.552200
C231	C23	0.396200	0.509200	0.104600
C241	C24	0.274900	0.508800	0.104100
C251	C25	0.213500	0.542900	0.157200
C261	C26	0.274400	0.577600	0.210100
C271	C27	0.394900	0.577800	0.210600
C281	C28	0.078200	0.545600	0.155400
C291	C29	0.017000	0.503800	0.115800
C301	C30	0.896300	0.503800	0.116600
C311	C31	0.895800	0.586500	0.196200
C321	C32	0.016900	0.586900	0.195000
C331	C33	0.643800	0.431800	0.147500
C341	C34	0.646900	0.359500	0.035200
C351	C35	0.642900	0.374400	0.117200
C361	C36	0.641800	0.334500	0.176600
C371	C37	0.645000	0.279400	0.157400
C381	C38	0.649300	0.264800	0.075500
C391	C39	0.650200	0.304600	0.013800
C401	C40	0.654200	0.288800	0.931700
C411	C41	0.656300	0.234200	0.910500
C421	C42	0.655900	0.194000	0.971100
C431	C43	0.652700	0.209100	0.052700
C441	C44	0.652900	0.132000	0.947800
C451	C45	0.396200	0.990800	0.604600
C461	C46	0.274900	0.991200	0.604100
C471	C47	0.213500	0.957100	0.657200
C481	C48	0.274400	0.922400	0.710100
C491	C49	0.394900	0.922200	0.710600
C501	C50	0.078200	0.954400	0.655400
C511	C51	0.017000	0.996200	0.615800
C521	C52	0.896300	0.996200	0.616600
C531	C53	0.895800	0.913500	0.696200
C541	C54	0.016900	0.913100	0.695000
C551	C55	0.643800	0.068200	0.647500
C561	C56	0.646900	0.140500	0.535200
C571	C57	0.642900	0.125600	0.617200
C581	C58	0.641800	0.165500	0.676600
C591	C59	0.645000	0.220600	0.657400
C601	C60	0.649300	0.235200	0.575500
C611	C61	0.650200	0.195400	0.513800
C621	C62	0.654200	0.211200	0.431700
C631	C63	0.656300	0.265800	0.410500
C641	C64	0.655900	0.306000	0.471100
C651	C65	0.652700	0.290900	0.552700
C661	C66	0.652900	0.368000	0.447800
C671	C67	0.396200	0.009200	0.895400
C681	C68	0.274900	0.008800	0.895900
C691	C69	0.213500	0.042900	0.842800
C701	C70	0.274400	0.077600	0.789900
C711	C71	0.394900	0.077800	0.789400
C721	C72	0.078200	0.045600	0.844600
C731	C73	0.017000	0.003800	0.884200
C741	C74	0.896300	0.003800	0.883400
C751	C75	0.895800	0.086500	0.803800
C761	C76	0.016900	0.086900	0.805000
C771	C77	0.643800	0.931800	0.852500
C781	C78	0.646900	0.859500	0.964800
C791	C79	0.642900	0.874400	0.882800
C801	C80	0.641800	0.834500	0.823400
C811	C81	0.645000	0.779400	0.842600
C821	C82	0.649300	0.764800	0.924500
C831	C83	0.650200	0.804600	0.986200
C841	C84	0.654200	0.788800	0.068300
C851	C85	0.656300	0.734200	0.089500
C861	C86	0.655900	0.694000	0.028900
C871	C87	0.652700	0.709100	0.947300
C881	C88	0.652900	0.632000	0.052200
N11	N1	0.456100	0.456560	0.342100
N21	N2	0.835200	0.454850	0.343900
N31	N3	0.456100	0.543440	0.157900
N41	N4	0.835200	0.545150	0.156100
N51	N5	0.456100	0.956560	0.657900
N61	N6	0.835200	0.954850	0.656100
N71	N7	0.456100	0.043440	0.842100
N81	N8	0.835200	0.045150	0.843900
O11	O1	0.644100	0.529500	0.401700
O21	O2	0.644200	0.559980	0.275990
O31	O3	0.670900	0.904760	0.507900
O41	O4	0.642000	0.871200	0.630000
O51	O5	0.644100	0.470500	0.098300
O61	O6	0.644200	0.440020	0.224010
O71	O7	0.670900	0.095240	0.992100
O81	O8	0.642000	0.128800	0.870000
O91	O9	0.644100	0.029500	0.598300
O101	O10	0.644200	0.059980	0.724010
O111	O11	0.670900	0.404760	0.492100
O121	O12	0.642000	0.371200	0.370000
O131	O13	0.644100	0.970500	0.901700
O141	O14	0.644200	0.940020	0.775990
O151	O15	0.670900	0.595240	0.007900
O161	O16	0.642000	0.628800	0.130000
Fe51	Fe5	0.355440	0.045720	0.346450
Fe61	Fe6	0.355440	0.954280	0.153550
Fe71	Fe7	0.355440	0.545720	0.653550
Fe81	Fe8	0.355440	0.454280	0.846450
H571	H57	0.562700	0.986400	0.430800
H581	H58	0.765000	0.985900	0.431700
H591	H59	0.766300	0.100600	0.254800
H601	H60	0.565100	0.100800	0.253900
H611	H61	0.942800	0.976100	0.411100
H621	H62	0.144200	0.975900	0.409600
H631	H63	0.144600	0.113900	0.276100
H641	H64	0.942800	0.115000	0.279100
H651	H65	0.352600	0.886200	0.505400
H661	H66	0.361100	0.844900	0.268600
H671	H67	0.355800	0.753000	0.301600
H681	H68	0.344500	0.815400	0.609100
H691	H69	0.342000	0.724100	0.644600
H701	H70	0.347300	0.682300	0.406900
H711	H71	0.562700	0.013600	0.069200
H721	H72	0.765000	0.014100	0.068300
H731	H73	0.766300	0.899400	0.245200
H741	H74	0.565100	0.899200	0.246100
H751	H75	0.942800	0.023900	0.088900
H761	H76	0.144200	0.024100	0.090400
H771	H77	0.144600	0.886100	0.223900
H781	H78	0.942800	0.885000	0.220900
H791	H79	0.352600	0.113800	0.994600
H801	H80	0.361100	0.155100	0.231400
H811	H81	0.355800	0.247000	0.198400
H821	H82	0.344500	0.184600	0.890900
H831	H83	0.342000	0.275900	0.855400
H841	H84	0.347300	0.317700	0.093100
H851	H85	0.562700	0.486400	0.569200
H861	H86	0.765000	0.485900	0.568300
H871	H87	0.766300	0.600600	0.745200
H881	H88	0.565100	0.600800	0.746100
H891	H89	0.942800	0.476100	0.588900
H901	H90	0.144200	0.475900	0.590400
H911	H91	0.144600	0.613900	0.723900
H921	H92	0.942800	0.615000	0.720900
H931	H93	0.352600	0.386200	0.494600
H941	H94	0.361100	0.344900	0.731400
H951	H95	0.355800	0.253000	0.698400
H961	H96	0.344500	0.315400	0.390900
H971	H97	0.342000	0.224100	0.355400
H981	H98	0.347300	0.182300	0.593100
H991	H99	0.562700	0.513600	0.930800
H1001	H100	0.765000	0.514100	0.931700
H1011	H101	0.766300	0.399400	0.754800
H1021	H102	0.565100	0.399200	0.753900
H1031	H103	0.942800	0.523900	0.911100
H1041	H104	0.144200	0.524100	0.909600
H1051	H105	0.144600	0.386100	0.776100
H1061	H106	0.942800	0.385000	0.779100
H1071	H107	0.352600	0.613800	0.005400
H1081	H108	0.361100	0.655100	0.768600
H1091	H109	0.355800	0.747000	0.801600
H1101	H110	0.344500	0.684600	0.109100
H1111	H111	0.342000	0.775900	0.144600
H1121	H112	0.347300	0.817700	0.906900
C891	C89	0.603800	0.009200	0.395400
C901	C90	0.725100	0.008800	0.395900
C911	C91	0.786500	0.042900	0.342800
C921	C92	0.725600	0.077600	0.289900
C931	C93	0.605100	0.077800	0.289400
C941	C94	0.921800	0.045600	0.344600
C951	C95	0.983000	0.003800	0.384200
C961	C96	0.103700	0.003800	0.383400
C971	C97	0.104200	0.086500	0.303800
C981	C98	0.983100	0.086900	0.305000
C991	C99	0.356200	0.931800	0.352500
C1001	C100	0.353100	0.859500	0.464800
C1011	C101	0.357100	0.874400	0.382800
C1021	C102	0.358200	0.834500	0.323400
C1031	C103	0.355000	0.779400	0.342600
C1041	C104	0.350700	0.764800	0.424500
C1051	C105	0.349800	0.804600	0.486200
C1061	C106	0.345800	0.788800	0.568300
C1071	C107	0.343700	0.734200	0.589500
C1081	C108	0.344100	0.694000	0.528900
C1091	C109	0.347300	0.709100	0.447300
C1101	C110	0.347100	0.632000	0.552200
C1111	C111	0.603800	0.990800	0.104600
C1121	C112	0.725100	0.991200	0.104100
C1131	C113	0.786500	0.957100	0.157200
C1141	C114	0.725600	0.922400	0.210100
C1151	C115	0.605100	0.922200	0.210600
C1161	C116	0.921800	0.954400	0.155400
C1171	C117	0.983000	0.996200	0.115800
C1181	C118	0.103700	0.996200	0.116600
C1191	C119	0.104200	0.913500	0.196200
C1201	C120	0.983100	0.913100	0.195000
C1211	C121	0.356200	0.068200	0.147500
C1221	C122	0.353100	0.140500	0.035200
C1231	C123	0.357100	0.125600	0.117200
C1241	C124	0.358200	0.165500	0.176600
C1251	C125	0.355000	0.220600	0.157400
C1261	C126	0.350700	0.235200	0.075500
C1271	C127	0.349800	0.195400	0.013800
C1281	C128	0.345800	0.211200	0.931700
C1291	C129	0.343700	0.265800	0.910500
C1301	C130	0.344100	0.306000	0.971100
C1311	C131	0.347300	0.290900	0.052700
C1321	C132	0.347100	0.368000	0.947800
C1331	C133	0.603800	0.509200	0.604600
C1341	C134	0.725100	0.508800	0.604100
C1351	C135	0.786500	0.542900	0.657200
C1361	C136	0.725600	0.577600	0.710100
C1371	C137	0.605100	0.577800	0.710600
C1381	C138	0.921800	0.545600	0.655400
C1391	C139	0.983000	0.503800	0.615800
C1401	C140	0.103700	0.503800	0.616600
C1411	C141	0.104200	0.586500	0.696200
C1421	C142	0.983100	0.586900	0.695000
C1431	C143	0.356200	0.431800	0.647500
C1441	C144	0.353100	0.359500	0.535200
C1451	C145	0.357100	0.374400	0.617200
C1461	C146	0.358200	0.334500	0.676600
C1471	C147	0.355000	0.279400	0.657400
C1481	C148	0.350700	0.264800	0.575500
C1491	C149	0.349800	0.304600	0.513800
C1501	C150	0.345800	0.288800	0.431700
C1511	C151	0.343700	0.234200	0.410500
C1521	C152	0.344100	0.194000	0.471100
C1531	C153	0.347300	0.209100	0.552700
C1541	C154	0.347100	0.132000	0.447800
C1551	C155	0.603800	0.490800	0.895400
C1561	C156	0.725100	0.491200	0.895900
C1571	C157	0.786500	0.457100	0.842800
C1581	C158	0.725600	0.422400	0.789900
C1591	C159	0.605100	0.422200	0.789400
C1601	C160	0.921800	0.454400	0.844600
C1611	C161	0.983000	0.496200	0.884200
C1621	C162	0.103700	0.496200	0.883400
C1631	C163	0.104200	0.413500	0.803800
C1641	C164	0.983100	0.413100	0.805000
C1651	C165	0.356200	0.568200	0.852500
C1661	C166	0.353100	0.640500	0.964800
C1671	C167	0.357100	0.625600	0.882800
C1681	C168	0.358200	0.665500	0.823400
C1691	C169	0.355000	0.720600	0.842600
C1701	C170	0.350700	0.735200	0.924500
C1711	C171	0.349800	0.695400	0.986200
C1721	C172	0.345800	0.711200	0.068300
C1731	C173	0.343700	0.765800	0.089500
C1741	C174	0.344100	0.806000	0.028900
C1751	C175	0.347300	0.790900	0.947300
C1761	C176	0.347100	0.868000	0.052200
N91	N9	0.543900	0.043440	0.342100
N101	N10	0.164800	0.045150	0.343900
N111	N11	0.543900	0.956560	0.157900
N121	N12	0.164800	0.954850	0.156100
N131	N13	0.543900	0.543440	0.657900
N141	N14	0.164800	0.545150	0.656100
N151	N15	0.543900	0.456560	0.842100
N161	N16	0.164800	0.454850	0.843900
O171	O17	0.355900	0.970500	0.401700
O181	O18	0.355800	0.940020	0.275990
O191	O19	0.329100	0.595240	0.507900
O201	O20	0.358000	0.628800	0.630000
O211	O21	0.355900	0.029500	0.098300
O221	O22	0.355800	0.059980	0.224010
O231	O23	0.329100	0.404760	0.992100
O241	O24	0.358000	0.371200	0.870000
O251	O25	0.355900	0.470500	0.598300
O261	O26	0.355800	0.440020	0.724010
O271	O27	0.329100	0.095240	0.492100
O281	O28	0.358000	0.128800	0.370000
O291	O29	0.355900	0.529500	0.901700
O301	O30	0.355800	0.559980	0.775990
O311	O31	0.329100	0.904760	0.007900
O321	O32	0.358000	0.871200	0.130000
