data_VAZTOG_clean_PM
_symmetry_space_group_name_H-M	'P1'
_cell_length_a	18.301400
_cell_length_b	18.301400
_cell_length_c	18.301400
_cell_angle_alpha	60.000000
_cell_angle_beta	60.000000
_cell_angle_gamma	60.000000
_symmetry_Int_Tables_number 1

loop_
_symmetry_equiv_pos_as_xyz
'x,y,z'

loop_
_atom_site_label
_atom_site_type_symbol
_atom_site_fract_x
_atom_site_fract_y
_atom_site_fract_z
Zn11	Zn1	0.206400	0.380800	0.206400
Zn21	Zn2	0.380800	0.206400	0.206400
Zn31	Zn3	0.206400	0.206400	0.206400
Zn41	Zn4	0.206400	0.206400	0.380800
Zn51	Zn5	0.619200	0.793600	0.793600
Zn61	Zn6	0.793600	0.619200	0.793600
Zn71	Zn7	0.793600	0.793600	0.793600
Zn81	Zn8	0.793600	0.793600	0.619200
H11	H1	0.048500	0.565700	0.048500
H21	H2	0.565700	0.048500	0.337300
H31	H3	0.048500	0.337300	0.048500
H41	H4	0.337300	0.048500	0.565700
H51	H5	0.048500	0.048500	0.337300
H61	H6	0.565700	0.337300	0.048500
H71	H7	0.048500	0.048500	0.565700
H81	H8	0.337300	0.565700	0.048500
H91	H9	0.048500	0.337300	0.565700
H101	H10	0.565700	0.048500	0.048500
H111	H11	0.048500	0.565700	0.337300
H121	H12	0.337300	0.048500	0.048500
H131	H13	0.434300	0.951500	0.951500
H141	H14	0.951500	0.434300	0.662700
H151	H15	0.662700	0.951500	0.951500
H161	H16	0.951500	0.662700	0.434300
H171	H17	0.951500	0.951500	0.662700
H181	H18	0.662700	0.434300	0.951500
H191	H19	0.951500	0.951500	0.434300
H201	H20	0.434300	0.662700	0.951500
H211	H21	0.662700	0.951500	0.434300
H221	H22	0.951500	0.434300	0.951500
H231	H23	0.434300	0.951500	0.662700
H241	H24	0.951500	0.662700	0.951500
C11	C1	0.026400	0.539200	0.026400
C21	C2	0.539200	0.026400	0.408000
C31	C3	0.026400	0.408000	0.026400
C41	C4	0.408000	0.026400	0.539200
C51	C5	0.026400	0.026400	0.408000
C61	C6	0.539200	0.408000	0.026400
C71	C7	0.026400	0.026400	0.539200
C81	C8	0.408000	0.539200	0.026400
C91	C9	0.026400	0.408000	0.539200
C101	C10	0.539200	0.026400	0.026400
C111	C11	0.026400	0.539200	0.408000
C121	C12	0.408000	0.026400	0.026400
C131	C13	0.460800	0.973600	0.973600
C141	C14	0.973600	0.460800	0.592000
C151	C15	0.592000	0.973600	0.973600
C161	C16	0.973600	0.592000	0.460800
C171	C17	0.973600	0.973600	0.592000
C181	C18	0.592000	0.460800	0.973600
C191	C19	0.973600	0.973600	0.460800
C201	C20	0.460800	0.592000	0.973600
C211	C21	0.592000	0.973600	0.460800
C221	C22	0.973600	0.460800	0.973600
C231	C23	0.460800	0.973600	0.592000
C241	C24	0.973600	0.592000	0.973600
C251	C25	0.110500	0.389500	0.110500
C261	C26	0.054300	0.445700	0.054300
C271	C27	0.389500	0.110500	0.389500
C281	C28	0.445700	0.054300	0.445700
C291	C29	0.110500	0.110500	0.389500
C301	C30	0.054300	0.054300	0.445700
C311	C31	0.389500	0.389500	0.110500
C321	C32	0.445700	0.445700	0.054300
C331	C33	0.110500	0.389500	0.389500
C341	C34	0.054300	0.445700	0.445700
C351	C35	0.389500	0.110500	0.110500
C361	C36	0.445700	0.054300	0.054300
C371	C37	0.610500	0.889500	0.889500
C381	C38	0.554300	0.945700	0.945700
C391	C39	0.889500	0.610500	0.610500
C401	C40	0.945700	0.554300	0.554300
C411	C41	0.889500	0.889500	0.610500
C421	C42	0.945700	0.945700	0.554300
C431	C43	0.610500	0.610500	0.889500
C441	C44	0.554300	0.554300	0.945700
C451	C45	0.610500	0.889500	0.610500
C461	C46	0.554300	0.945700	0.554300
C471	C47	0.889500	0.610500	0.889500
C481	C48	0.945700	0.554300	0.945700
O11	O1	0.250000	0.250000	0.250000
O21	O2	0.750000	0.750000	0.750000
O31	O3	0.133300	0.428300	0.133300
O41	O4	0.428300	0.133300	0.305100
O51	O5	0.133300	0.305100	0.133300
O61	O6	0.305100	0.133300	0.428300
O71	O7	0.133300	0.133300	0.305100
O81	O8	0.428300	0.305100	0.133300
O91	O9	0.133300	0.133300	0.428300
O101	O10	0.305100	0.428300	0.133300
O111	O11	0.133300	0.305100	0.428300
O121	O12	0.428300	0.133300	0.133300
O131	O13	0.133300	0.428300	0.305100
O141	O14	0.305100	0.133300	0.133300
O151	O15	0.571700	0.866700	0.866700
O161	O16	0.866700	0.571700	0.694900
O171	O17	0.694900	0.866700	0.866700
O181	O18	0.866700	0.694900	0.571700
O191	O19	0.866700	0.866700	0.694900
O201	O20	0.694900	0.571700	0.866700
O211	O21	0.866700	0.866700	0.571700
O221	O22	0.571700	0.694900	0.866700
O231	O23	0.694900	0.866700	0.571700
O241	O24	0.866700	0.571700	0.866700
O251	O25	0.571700	0.866700	0.694900
O261	O26	0.866700	0.694900	0.866700
