data_VAZTUM_clean_PM
_symmetry_space_group_name_H-M	'P1'
_cell_length_a	25.856000
_cell_length_b	25.856000
_cell_length_c	25.856000
_cell_angle_alpha	90.000000
_cell_angle_beta	90.000000
_cell_angle_gamma	90.000000
_symmetry_Int_Tables_number 1

loop_
_symmetry_equiv_pos_as_xyz
'x,y,z'

loop_
_atom_site_label
_atom_site_type_symbol
_atom_site_fract_x
_atom_site_fract_y
_atom_site_fract_z
Zn11	Zn1	0.294600	0.294600	0.205400
Zn21	Zn2	0.705400	0.705400	0.205400
Zn31	Zn3	0.205400	0.205400	0.205400
Zn41	Zn4	0.705400	0.294600	0.794600
Zn51	Zn5	0.205400	0.294600	0.294600
Zn61	Zn6	0.294600	0.705400	0.794600
Zn71	Zn7	0.294600	0.205400	0.294600
Zn81	Zn8	0.205400	0.794600	0.794600
Zn91	Zn9	0.205400	0.705400	0.705400
Zn101	Zn10	0.794600	0.705400	0.294600
Zn111	Zn11	0.794600	0.205400	0.794600
Zn121	Zn12	0.794600	0.294600	0.705400
Zn131	Zn13	0.794600	0.794600	0.205400
Zn141	Zn14	0.705400	0.205400	0.705400
Zn151	Zn15	0.294600	0.794600	0.705400
Zn161	Zn16	0.705400	0.794600	0.294600
Zn171	Zn17	0.294600	0.294600	0.794600
Zn181	Zn18	0.705400	0.705400	0.794600
Zn191	Zn19	0.705400	0.205400	0.294600
Zn201	Zn20	0.205400	0.705400	0.294600
Zn211	Zn21	0.294600	0.705400	0.205400
Zn221	Zn22	0.705400	0.294600	0.205400
Zn231	Zn23	0.205400	0.794600	0.205400
Zn241	Zn24	0.294600	0.205400	0.705400
Zn251	Zn25	0.205400	0.205400	0.794600
Zn261	Zn26	0.705400	0.794600	0.705400
Zn271	Zn27	0.205400	0.294600	0.705400
Zn281	Zn28	0.294600	0.794600	0.294600
Zn291	Zn29	0.794600	0.294600	0.294600
Zn301	Zn30	0.794600	0.794600	0.794600
Zn311	Zn31	0.794600	0.705400	0.705400
Zn321	Zn32	0.794600	0.205400	0.205400
O11	O1	0.250000	0.250000	0.250000
O21	O2	0.750000	0.750000	0.250000
O31	O3	0.750000	0.250000	0.750000
O41	O4	0.250000	0.750000	0.750000
O51	O5	0.250000	0.250000	0.750000
O61	O6	0.750000	0.750000	0.750000
O71	O7	0.750000	0.250000	0.250000
O81	O8	0.250000	0.750000	0.250000
O91	O9	0.280600	0.366100	0.219400
C11	C1	0.282900	0.473300	0.217100
H11	H1	0.306900	0.452500	0.193100
O101	O10	0.280600	0.866100	0.719400
C21	C2	0.282900	0.973300	0.717100
H21	H2	0.306900	0.952500	0.693100
O111	O11	0.719400	0.633900	0.219400
C31	C3	0.717100	0.526700	0.217100
H31	H3	0.693100	0.547500	0.193100
O121	O12	0.719400	0.133900	0.719400
C41	C4	0.717100	0.026700	0.717100
H41	H4	0.693100	0.047500	0.693100
O131	O13	0.219400	0.133900	0.219400
C51	C5	0.217100	0.026700	0.217100
H51	H5	0.193100	0.047500	0.193100
O141	O14	0.719400	0.366100	0.780600
C61	C6	0.717100	0.473300	0.782900
H61	H6	0.693100	0.452500	0.806900
O151	O15	0.719400	0.866100	0.280600
C71	C7	0.717100	0.973300	0.282900
H71	H7	0.693100	0.952500	0.306900
O161	O16	0.219400	0.366100	0.280600
C81	C8	0.217100	0.473300	0.282900
H81	H8	0.193100	0.452500	0.306900
O171	O17	0.280600	0.633900	0.780600
C91	C9	0.282900	0.526700	0.782900
H91	H9	0.306900	0.547500	0.806900
O181	O18	0.280600	0.133900	0.280600
C101	C10	0.282900	0.026700	0.282900
H101	H10	0.306900	0.047500	0.306900
O191	O19	0.219400	0.280600	0.366100
C111	C11	0.217100	0.282900	0.473300
H111	H11	0.193100	0.306900	0.452500
O201	O20	0.219400	0.780600	0.866100
C121	C12	0.217100	0.782900	0.973300
H121	H12	0.193100	0.806900	0.952500
O211	O21	0.219400	0.719400	0.633900
C131	C13	0.217100	0.717100	0.526700
H131	H13	0.193100	0.693100	0.547500
O221	O22	0.219400	0.219400	0.133900
C141	C14	0.217100	0.217100	0.026700
H141	H14	0.193100	0.193100	0.047500
O231	O23	0.780600	0.719400	0.366100
C151	C15	0.782900	0.717100	0.473300
H151	H15	0.806900	0.693100	0.452500
O241	O24	0.780600	0.219400	0.866100
C161	C16	0.782900	0.217100	0.973300
H161	H16	0.806900	0.193100	0.952500
O251	O25	0.280600	0.219400	0.366100
C171	C17	0.282900	0.217100	0.473300
H171	H17	0.306900	0.193100	0.452500
O261	O26	0.780600	0.280600	0.633900
C181	C18	0.782900	0.282900	0.526700
H181	H18	0.806900	0.306900	0.547500
O271	O27	0.780600	0.780600	0.133900
C191	C19	0.782900	0.782900	0.026700
H191	H19	0.806900	0.806900	0.047500
O281	O28	0.280600	0.280600	0.133900
C201	C20	0.282900	0.282900	0.026700
H201	H20	0.306900	0.306900	0.047500
O291	O29	0.366100	0.219400	0.280600
C211	C21	0.473300	0.217100	0.282900
H211	H21	0.452500	0.193100	0.306900
O301	O30	0.866100	0.219400	0.780600
C221	C22	0.973300	0.217100	0.782900
H221	H22	0.952500	0.193100	0.806900
O311	O31	0.633900	0.219400	0.719400
C231	C23	0.526700	0.217100	0.717100
H231	H23	0.547500	0.193100	0.693100
O321	O32	0.133900	0.219400	0.219400
C241	C24	0.026700	0.217100	0.217100
H241	H24	0.047500	0.193100	0.193100
O331	O33	0.366100	0.780600	0.719400
C251	C25	0.473300	0.782900	0.717100
H251	H25	0.452500	0.806900	0.693100
O341	O34	0.366100	0.280600	0.219400
C261	C26	0.473300	0.282900	0.217100
H261	H26	0.452500	0.306900	0.193100
O351	O35	0.866100	0.780600	0.219400
C271	C27	0.973300	0.782900	0.217100
H271	H27	0.952500	0.806900	0.193100
O361	O36	0.633900	0.780600	0.280600
C281	C28	0.526700	0.782900	0.282900
H281	H28	0.547500	0.806900	0.306900
O371	O37	0.133900	0.780600	0.780600
C291	C29	0.026700	0.782900	0.782900
H291	H29	0.047500	0.806900	0.806900
O381	O38	0.133900	0.280600	0.280600
C301	C30	0.026700	0.282900	0.282900
H301	H30	0.047500	0.306900	0.306900
O391	O39	0.366100	0.280600	0.780600
C311	C31	0.473300	0.282900	0.782900
H311	H31	0.452500	0.306900	0.806900
O401	O40	0.866100	0.280600	0.280600
C321	C32	0.973300	0.282900	0.282900
H321	H32	0.952500	0.306900	0.306900
O411	O41	0.633900	0.719400	0.780600
C331	C33	0.526700	0.717100	0.782900
H331	H33	0.547500	0.693100	0.806900
O421	O42	0.633900	0.219400	0.280600
C341	C34	0.526700	0.217100	0.282900
H341	H34	0.547500	0.193100	0.306900
O431	O43	0.133900	0.719400	0.280600
C351	C35	0.026700	0.717100	0.282900
H351	H35	0.047500	0.693100	0.306900
O441	O44	0.366100	0.719400	0.219400
C361	C36	0.473300	0.717100	0.217100
H361	H36	0.452500	0.693100	0.193100
O451	O45	0.866100	0.719400	0.719400
C371	C37	0.973300	0.717100	0.717100
H371	H37	0.952500	0.693100	0.693100
O461	O46	0.866100	0.219400	0.219400
C381	C38	0.973300	0.217100	0.217100
H381	H38	0.952500	0.193100	0.193100
O471	O47	0.633900	0.280600	0.219400
C391	C39	0.526700	0.282900	0.217100
H391	H39	0.547500	0.306900	0.193100
O481	O48	0.133900	0.280600	0.719400
C401	C40	0.026700	0.282900	0.717100
H401	H40	0.047500	0.306900	0.693100
O491	O49	0.280600	0.219400	0.633900
C411	C41	0.282900	0.217100	0.526700
H411	H41	0.306900	0.193100	0.547500
O501	O50	0.280600	0.719400	0.133900
C421	C42	0.282900	0.717100	0.026700
H421	H42	0.306900	0.693100	0.047500
O511	O51	0.719400	0.219400	0.366100
C431	C43	0.717100	0.217100	0.473300
H431	H43	0.693100	0.193100	0.452500
O521	O52	0.719400	0.719400	0.866100
C441	C44	0.717100	0.717100	0.973300
H441	H44	0.693100	0.693100	0.952500
O531	O53	0.219400	0.219400	0.866100
C451	C45	0.217100	0.217100	0.973300
H451	H45	0.193100	0.193100	0.952500
O541	O54	0.719400	0.780600	0.633900
C461	C46	0.717100	0.782900	0.526700
H461	H46	0.693100	0.806900	0.547500
O551	O55	0.719400	0.280600	0.133900
C471	C47	0.717100	0.282900	0.026700
H471	H47	0.693100	0.306900	0.047500
O561	O56	0.219400	0.280600	0.633900
C481	C48	0.217100	0.282900	0.526700
H481	H48	0.193100	0.306900	0.547500
O571	O57	0.280600	0.780600	0.366100
C491	C49	0.282900	0.782900	0.473300
H491	H49	0.306900	0.806900	0.452500
O581	O58	0.280600	0.280600	0.866100
C501	C50	0.282900	0.282900	0.973300
H501	H50	0.306900	0.306900	0.952500
O591	O59	0.219400	0.366100	0.719400
C511	C51	0.217100	0.473300	0.717100
H511	H51	0.193100	0.452500	0.693100
O601	O60	0.219400	0.866100	0.219400
C521	C52	0.217100	0.973300	0.217100
H521	H52	0.193100	0.952500	0.193100
O611	O61	0.219400	0.633900	0.280600
C531	C53	0.217100	0.526700	0.282900
H531	H53	0.193100	0.547500	0.306900
O621	O62	0.219400	0.133900	0.780600
C541	C54	0.217100	0.026700	0.782900
H541	H54	0.193100	0.047500	0.806900
O631	O63	0.780600	0.366100	0.280600
C551	C55	0.782900	0.473300	0.282900
H551	H55	0.806900	0.452500	0.306900
O641	O64	0.780600	0.866100	0.780600
C561	C56	0.782900	0.973300	0.782900
H561	H56	0.806900	0.952500	0.806900
O651	O65	0.280600	0.866100	0.280600
C571	C57	0.282900	0.973300	0.282900
H571	H57	0.306900	0.952500	0.306900
O661	O66	0.780600	0.633900	0.719400
C581	C58	0.782900	0.526700	0.717100
H581	H58	0.806900	0.547500	0.693100
O671	O67	0.780600	0.133900	0.219400
C591	C59	0.782900	0.026700	0.217100
H591	H59	0.806900	0.047500	0.193100
O681	O68	0.280600	0.633900	0.219400
C601	C60	0.282900	0.526700	0.217100
H601	H60	0.306900	0.547500	0.193100
O691	O69	0.719400	0.633900	0.780600
C611	C61	0.717100	0.526700	0.782900
H611	H61	0.693100	0.547500	0.806900
O701	O70	0.719400	0.133900	0.280600
C621	C62	0.717100	0.026700	0.282900
H621	H62	0.693100	0.047500	0.306900
O711	O71	0.280600	0.366100	0.780600
C631	C63	0.282900	0.473300	0.782900
H631	H63	0.306900	0.452500	0.806900
O721	O72	0.280600	0.133900	0.719400
C641	C64	0.282900	0.026700	0.717100
H641	H64	0.306900	0.047500	0.693100
O731	O73	0.719400	0.366100	0.219400
C651	C65	0.717100	0.473300	0.217100
H651	H65	0.693100	0.452500	0.193100
O741	O74	0.719400	0.866100	0.719400
C661	C66	0.717100	0.973300	0.717100
H661	H66	0.693100	0.952500	0.693100
O751	O75	0.780600	0.719400	0.633900
C671	C67	0.782900	0.717100	0.526700
H671	H67	0.806900	0.693100	0.547500
O761	O76	0.780600	0.219400	0.133900
C681	C68	0.782900	0.217100	0.026700
H681	H68	0.806900	0.193100	0.047500
O771	O77	0.780600	0.280600	0.366100
C691	C69	0.782900	0.282900	0.473300
H691	H69	0.806900	0.306900	0.452500
O781	O78	0.780600	0.780600	0.866100
C701	C70	0.782900	0.782900	0.973300
H701	H70	0.806900	0.806900	0.952500
O791	O79	0.219400	0.780600	0.133900
C711	C71	0.217100	0.782900	0.026700
H711	H71	0.193100	0.806900	0.047500
O801	O80	0.219400	0.719400	0.366100
C721	C72	0.217100	0.717100	0.473300
H721	H72	0.193100	0.693100	0.452500
O811	O81	0.633900	0.780600	0.719400
C731	C73	0.526700	0.782900	0.717100
H731	H73	0.547500	0.806900	0.693100
O821	O82	0.133900	0.780600	0.219400
C741	C74	0.026700	0.782900	0.217100
H741	H74	0.047500	0.806900	0.193100
O831	O83	0.366100	0.780600	0.280600
C751	C75	0.473300	0.782900	0.282900
H751	H75	0.452500	0.806900	0.306900
O841	O84	0.866100	0.780600	0.780600
C761	C76	0.973300	0.782900	0.782900
H761	H76	0.952500	0.806900	0.806900
O851	O85	0.133900	0.219400	0.780600
C771	C77	0.026700	0.217100	0.782900
H771	H77	0.047500	0.193100	0.806900
O861	O86	0.366100	0.219400	0.719400
C781	C78	0.473300	0.217100	0.717100
H781	H78	0.452500	0.193100	0.693100
O871	O87	0.633900	0.719400	0.219400
C791	C79	0.526700	0.717100	0.217100
H791	H79	0.547500	0.693100	0.193100
O881	O88	0.133900	0.719400	0.719400
C801	C80	0.026700	0.717100	0.717100
H801	H80	0.047500	0.693100	0.693100
O891	O89	0.866100	0.280600	0.719400
C811	C81	0.973300	0.282900	0.717100
H811	H81	0.952500	0.306900	0.693100
O901	O90	0.633900	0.280600	0.780600
C821	C82	0.526700	0.282900	0.782900
H821	H82	0.547500	0.306900	0.806900
O911	O91	0.366100	0.719400	0.780600
C831	C83	0.473300	0.717100	0.782900
H831	H83	0.452500	0.693100	0.806900
O921	O92	0.866100	0.719400	0.280600
C841	C84	0.973300	0.717100	0.282900
H841	H84	0.952500	0.693100	0.306900
O931	O93	0.719400	0.780600	0.366100
C851	C85	0.717100	0.782900	0.473300
H851	H85	0.693100	0.806900	0.452500
O941	O94	0.719400	0.280600	0.866100
C861	C86	0.717100	0.282900	0.973300
H861	H86	0.693100	0.306900	0.952500
O951	O95	0.280600	0.780600	0.633900
C871	C87	0.282900	0.782900	0.526700
H871	H87	0.306900	0.806900	0.547500
O961	O96	0.280600	0.719400	0.866100
C881	C88	0.282900	0.717100	0.973300
H881	H88	0.306900	0.693100	0.952500
O971	O97	0.719400	0.219400	0.633900
C891	C89	0.717100	0.217100	0.526700
H891	H89	0.693100	0.193100	0.547500
O981	O98	0.719400	0.719400	0.133900
C901	C90	0.717100	0.717100	0.026700
H901	H90	0.693100	0.693100	0.047500
O991	O99	0.780600	0.633900	0.280600
C911	C91	0.782900	0.526700	0.282900
H911	H91	0.806900	0.547500	0.306900
O1001	O100	0.780600	0.133900	0.780600
C921	C92	0.782900	0.026700	0.782900
H921	H92	0.806900	0.047500	0.806900
O1011	O101	0.780600	0.366100	0.719400
C931	C93	0.782900	0.473300	0.717100
H931	H93	0.806900	0.452500	0.693100
O1021	O102	0.780600	0.866100	0.219400
C941	C94	0.782900	0.973300	0.217100
H941	H94	0.806900	0.952500	0.193100
O1031	O103	0.219400	0.633900	0.719400
C951	C95	0.217100	0.526700	0.717100
H951	H95	0.193100	0.547500	0.693100
O1041	O104	0.219400	0.866100	0.780600
C961	C96	0.217100	0.973300	0.782900
H961	H96	0.193100	0.952500	0.806900
C971	C97	0.250000	0.389400	0.250000
C981	C98	0.250000	0.444900	0.250000
C991	C99	0.250000	0.889400	0.750000
C1001	C100	0.250000	0.944900	0.750000
C1011	C101	0.750000	0.610600	0.250000
C1021	C102	0.750000	0.555100	0.250000
C1031	C103	0.750000	0.110600	0.750000
C1041	C104	0.750000	0.055100	0.750000
C1051	C105	0.250000	0.110600	0.250000
C1061	C106	0.250000	0.055100	0.250000
C1071	C107	0.750000	0.389400	0.750000
C1081	C108	0.750000	0.444900	0.750000
C1091	C109	0.750000	0.889400	0.250000
C1101	C110	0.750000	0.944900	0.250000
C1111	C111	0.250000	0.610600	0.750000
C1121	C112	0.250000	0.555100	0.750000
C1131	C113	0.250000	0.250000	0.389400
C1141	C114	0.250000	0.250000	0.444900
C1151	C115	0.250000	0.750000	0.889400
C1161	C116	0.250000	0.750000	0.944900
C1171	C117	0.250000	0.750000	0.610600
C1181	C118	0.250000	0.750000	0.555100
C1191	C119	0.250000	0.250000	0.110600
C1201	C120	0.250000	0.250000	0.055100
C1211	C121	0.750000	0.750000	0.389400
C1221	C122	0.750000	0.750000	0.444900
C1231	C123	0.750000	0.250000	0.889400
C1241	C124	0.750000	0.250000	0.944900
C1251	C125	0.750000	0.250000	0.610600
C1261	C126	0.750000	0.250000	0.555100
C1271	C127	0.750000	0.750000	0.110600
C1281	C128	0.750000	0.750000	0.055100
C1291	C129	0.389400	0.250000	0.250000
C1301	C130	0.444900	0.250000	0.250000
C1311	C131	0.889400	0.250000	0.750000
C1321	C132	0.944900	0.250000	0.750000
C1331	C133	0.610600	0.250000	0.750000
C1341	C134	0.555100	0.250000	0.750000
C1351	C135	0.110600	0.250000	0.250000
C1361	C136	0.055100	0.250000	0.250000
C1371	C137	0.389400	0.750000	0.750000
C1381	C138	0.444900	0.750000	0.750000
C1391	C139	0.889400	0.750000	0.250000
C1401	C140	0.944900	0.750000	0.250000
C1411	C141	0.610600	0.750000	0.250000
C1421	C142	0.555100	0.750000	0.250000
C1431	C143	0.110600	0.750000	0.750000
C1441	C144	0.055100	0.750000	0.750000
C1451	C145	0.389400	0.250000	0.750000
C1461	C146	0.444900	0.250000	0.750000
C1471	C147	0.889400	0.250000	0.250000
C1481	C148	0.944900	0.250000	0.250000
C1491	C149	0.610600	0.750000	0.750000
C1501	C150	0.555100	0.750000	0.750000
C1511	C151	0.610600	0.250000	0.250000
C1521	C152	0.555100	0.250000	0.250000
C1531	C153	0.110600	0.750000	0.250000
C1541	C154	0.055100	0.750000	0.250000
C1551	C155	0.389400	0.750000	0.250000
C1561	C156	0.444900	0.750000	0.250000
C1571	C157	0.889400	0.750000	0.750000
C1581	C158	0.944900	0.750000	0.750000
C1591	C159	0.110600	0.250000	0.750000
C1601	C160	0.055100	0.250000	0.750000
C1611	C161	0.250000	0.250000	0.610600
C1621	C162	0.250000	0.250000	0.555100
C1631	C163	0.250000	0.750000	0.110600
C1641	C164	0.250000	0.750000	0.055100
C1651	C165	0.750000	0.250000	0.389400
C1661	C166	0.750000	0.250000	0.444900
C1671	C167	0.750000	0.750000	0.889400
C1681	C168	0.750000	0.750000	0.944900
C1691	C169	0.250000	0.250000	0.889400
C1701	C170	0.250000	0.250000	0.944900
C1711	C171	0.750000	0.750000	0.610600
C1721	C172	0.750000	0.750000	0.555100
C1731	C173	0.750000	0.250000	0.110600
C1741	C174	0.750000	0.250000	0.055100
C1751	C175	0.250000	0.750000	0.389400
C1761	C176	0.250000	0.750000	0.444900
C1771	C177	0.250000	0.389400	0.750000
C1781	C178	0.250000	0.444900	0.750000
C1791	C179	0.250000	0.889400	0.250000
C1801	C180	0.250000	0.944900	0.250000
C1811	C181	0.250000	0.610600	0.250000
C1821	C182	0.250000	0.555100	0.250000
C1831	C183	0.250000	0.110600	0.750000
C1841	C184	0.250000	0.055100	0.750000
C1851	C185	0.750000	0.389400	0.250000
C1861	C186	0.750000	0.444900	0.250000
C1871	C187	0.750000	0.889400	0.750000
C1881	C188	0.750000	0.944900	0.750000
C1891	C189	0.750000	0.610600	0.750000
C1901	C190	0.750000	0.555100	0.750000
C1911	C191	0.750000	0.110600	0.250000
C1921	C192	0.750000	0.055100	0.250000
