data_VECZEK_clean_PM
_symmetry_space_group_name_H-M	'P1'
_cell_length_a	9.949300
_cell_length_b	14.079600
_cell_length_c	19.906000
_cell_angle_alpha	90.000000
_cell_angle_beta	101.585000
_cell_angle_gamma	90.000000
_symmetry_Int_Tables_number 1

loop_
_symmetry_equiv_pos_as_xyz
'x,y,z'

loop_
_atom_site_label
_atom_site_type_symbol
_atom_site_fract_x
_atom_site_fract_y
_atom_site_fract_z
Ag11	Ag1	0.611170	0.022390	0.451440
Ag21	Ag2	0.612420	0.149220	0.279070
Ag31	Ag3	0.932910	0.129750	0.634710
S11	S1	0.780200	0.016400	0.560200
S21	S2	0.764200	0.018700	0.352700
N11	N1	0.584800	0.931300	0.617500
N21	N2	0.579200	0.868800	0.669600
N31	N3	0.698200	0.841800	0.696000
N41	N4	0.785500	0.885900	0.662900
N51	N5	0.852700	0.852100	0.306200
N61	N6	0.798800	0.778300	0.266600
N71	N7	0.668300	0.789600	0.245800
N81	N8	0.636900	0.873600	0.272000
C11	C1	0.709200	0.942700	0.614000
C21	C2	0.931000	0.867300	0.683800
H11	H1	0.946400	0.822400	0.720800
H21	H2	0.978400	0.925500	0.698600
H31	H3	0.965300	0.841800	0.645700
C31	C3	0.750500	0.910100	0.310800
C41	C4	0.496600	0.908000	0.261000
H41	H4	0.438000	0.866200	0.230000
H51	H5	0.466900	0.910000	0.303900
H61	H6	0.492100	0.970700	0.241600
Ag41	Ag4	0.888830	0.522390	0.048560
Ag51	Ag5	0.887580	0.649220	0.220930
Ag61	Ag6	0.567090	0.629750	0.865290
S31	S3	0.719800	0.516400	0.939800
S41	S4	0.735800	0.518700	0.147300
N91	N9	0.915200	0.431300	0.882500
N101	N10	0.920800	0.368800	0.830400
N111	N11	0.801800	0.341800	0.804000
N121	N12	0.714500	0.385900	0.837100
N131	N13	0.647300	0.352100	0.193800
N141	N14	0.701200	0.278300	0.233400
N151	N15	0.831700	0.289600	0.254200
N161	N16	0.863100	0.373600	0.228000
C51	C5	0.790800	0.442700	0.886000
C61	C6	0.569000	0.367300	0.816200
H71	H7	0.553600	0.322400	0.779200
H81	H8	0.521600	0.425500	0.801400
H91	H9	0.534700	0.341800	0.854300
C71	C7	0.749500	0.410100	0.189200
C81	C8	0.003400	0.408000	0.239000
H101	H10	0.062000	0.366200	0.270000
H111	H11	0.033100	0.410000	0.196100
H121	H12	0.007900	0.470700	0.258400
Ag71	Ag7	0.388830	0.977610	0.548560
Ag81	Ag8	0.387580	0.850780	0.720930
Ag91	Ag9	0.067090	0.870250	0.365290
S51	S5	0.219800	0.983600	0.439800
S61	S6	0.235800	0.981300	0.647300
N171	N17	0.415200	0.068700	0.382500
N181	N18	0.420800	0.131200	0.330400
N191	N19	0.301800	0.158200	0.304000
N201	N20	0.214500	0.114100	0.337100
N211	N21	0.147300	0.147900	0.693800
N221	N22	0.201200	0.221700	0.733400
N231	N23	0.331700	0.210400	0.754200
N241	N24	0.363100	0.126400	0.728000
C91	C9	0.290800	0.057300	0.386000
C101	C10	0.069000	0.132700	0.316200
H131	H13	0.053600	0.177600	0.279200
H141	H14	0.021600	0.074500	0.301400
H151	H15	0.034700	0.158200	0.354300
C111	C11	0.249500	0.089900	0.689200
C121	C12	0.503400	0.092000	0.739000
H161	H16	0.562000	0.133800	0.770000
H171	H17	0.533100	0.090000	0.696100
H181	H18	0.507900	0.029300	0.758400
Ag101	Ag10	0.111170	0.477610	0.951440
Ag111	Ag11	0.112420	0.350780	0.779070
Ag121	Ag12	0.432910	0.370250	0.134710
S71	S7	0.280200	0.483600	0.060200
S81	S8	0.264200	0.481300	0.852700
N251	N25	0.084800	0.568700	0.117500
N261	N26	0.079200	0.631200	0.169600
N271	N27	0.198200	0.658200	0.196000
N281	N28	0.285500	0.614100	0.162900
N291	N29	0.352700	0.647900	0.806200
N301	N30	0.298800	0.721700	0.766600
N311	N31	0.168300	0.710400	0.745800
N321	N32	0.136900	0.626400	0.772000
C131	C13	0.209200	0.557300	0.114000
C141	C14	0.431000	0.632700	0.183800
H191	H19	0.446400	0.677600	0.220800
H201	H20	0.478400	0.574500	0.198600
H211	H21	0.465300	0.658200	0.145700
C151	C15	0.250500	0.589900	0.810800
C161	C16	0.996600	0.592000	0.761000
H221	H22	0.938000	0.633800	0.730000
H231	H23	0.966900	0.590000	0.803900
H241	H24	0.992100	0.529300	0.741600
