data_VECZAG_clean_PM
_symmetry_space_group_name_H-M	'P1'
_cell_length_a	10.039300
_cell_length_b	13.968800
_cell_length_c	19.893000
_cell_angle_alpha	90.000000
_cell_angle_beta	102.369000
_cell_angle_gamma	90.000000
_symmetry_Int_Tables_number 1

loop_
_symmetry_equiv_pos_as_xyz
'x,y,z'

loop_
_atom_site_label
_atom_site_type_symbol
_atom_site_fract_x
_atom_site_fract_y
_atom_site_fract_z
Ag11	Ag1	0.422500	0.636300	0.139820
Ag21	Ag2	0.522400	0.457700	0.071600
Ag31	Ag3	0.892200	0.479070	0.046220
Ag41	Ag4	0.608000	0.845710	0.274450
S11	S1	0.745200	0.476900	0.146200
S21	S2	0.280600	0.509800	0.063100
N11	N1	0.648000	0.642900	0.191300
N21	N2	0.698000	0.716800	0.231900
N31	N3	0.831000	0.707600	0.252800
N41	N4	0.861000	0.622600	0.227000
N51	N5	0.085000	0.427100	0.118100
N61	N6	0.075000	0.366700	0.170300
N71	N7	0.190000	0.340300	0.202100
N81	N8	0.280000	0.375700	0.168300
C11	C1	0.750000	0.586000	0.188700
C21	C2	0.000000	0.591000	0.239700
H11	H1	0.003300	0.522600	0.245500
H21	H2	0.050900	0.620700	0.280700
H31	H3	0.039500	0.607900	0.201400
C31	C3	0.215000	0.435000	0.118200
C41	C4	0.425000	0.359000	0.194200
H41	H4	0.438400	0.328700	0.238600
H51	H5	0.472900	0.418300	0.198100
H61	H6	0.458400	0.317300	0.163000
Ag51	Ag5	0.077500	0.136300	0.360180
Ag61	Ag6	0.977600	0.957700	0.428400
Ag71	Ag7	0.607800	0.979070	0.453780
Ag81	Ag8	0.892000	0.345710	0.225550
S31	S3	0.754800	0.976900	0.353800
S41	S4	0.219400	0.009800	0.436900
N91	N9	0.852000	0.142900	0.308700
N101	N10	0.802000	0.216800	0.268100
N111	N11	0.669000	0.207600	0.247200
N121	N12	0.639000	0.122600	0.273000
N131	N13	0.415000	0.927100	0.381900
N141	N14	0.425000	0.866700	0.329700
N151	N15	0.310000	0.840300	0.297900
N161	N16	0.220000	0.875700	0.331700
C51	C5	0.750000	0.086000	0.311300
C61	C6	0.500000	0.091000	0.260300
H71	H7	0.496700	0.022600	0.254500
H81	H8	0.449100	0.120700	0.219300
H91	H9	0.460500	0.107900	0.298600
C71	C7	0.285000	0.935000	0.381800
C81	C8	0.075000	0.859000	0.305800
H101	H10	0.061600	0.828700	0.261400
H111	H11	0.027100	0.918300	0.301900
H121	H12	0.041600	0.817300	0.337000
Ag91	Ag9	0.577500	0.363700	0.860180
Ag101	Ag10	0.477600	0.542300	0.928400
Ag111	Ag11	0.107800	0.520930	0.953780
Ag121	Ag12	0.392000	0.154290	0.725550
S51	S5	0.254800	0.523100	0.853800
S61	S6	0.719400	0.490200	0.936900
N171	N17	0.352000	0.357100	0.808700
N181	N18	0.302000	0.283200	0.768100
N191	N19	0.169000	0.292400	0.747200
N201	N20	0.139000	0.377400	0.773000
N211	N21	0.915000	0.572900	0.881900
N221	N22	0.925000	0.633300	0.829700
N231	N23	0.810000	0.659700	0.797900
N241	N24	0.720000	0.624300	0.831700
C91	C9	0.250000	0.414000	0.811300
C101	C10	0.000000	0.409000	0.760300
H131	H13	0.996700	0.477400	0.754500
H141	H14	0.949100	0.379300	0.719300
H151	H15	0.960500	0.392100	0.798600
C111	C11	0.785000	0.565000	0.881800
C121	C12	0.575000	0.641000	0.805800
H161	H16	0.561600	0.671300	0.761400
H171	H17	0.527100	0.581700	0.801900
H181	H18	0.541600	0.682700	0.837000
Ag131	Ag13	0.922500	0.863700	0.639820
Ag141	Ag14	0.022400	0.042300	0.571600
Ag151	Ag15	0.392200	0.020930	0.546220
Ag161	Ag16	0.108000	0.654290	0.774450
S71	S7	0.245200	0.023100	0.646200
S81	S8	0.780600	0.990200	0.563100
N251	N25	0.148000	0.857100	0.691300
N261	N26	0.198000	0.783200	0.731900
N271	N27	0.331000	0.792400	0.752800
N281	N28	0.361000	0.877400	0.727000
N291	N29	0.585000	0.072900	0.618100
N301	N30	0.575000	0.133300	0.670300
N311	N31	0.690000	0.159700	0.702100
N321	N32	0.780000	0.124300	0.668300
C131	C13	0.250000	0.914000	0.688700
C141	C14	0.500000	0.909000	0.739700
H191	H19	0.503300	0.977400	0.745500
H201	H20	0.550900	0.879300	0.780700
H211	H21	0.539500	0.892100	0.701400
C151	C15	0.715000	0.065000	0.618200
C161	C16	0.925000	0.141000	0.694200
H221	H22	0.938400	0.171300	0.738600
H231	H23	0.972900	0.081700	0.698100
H241	H24	0.958400	0.182700	0.663000
