data_VECZEI_clean_PM
_symmetry_space_group_name_H-M	'P1'
_cell_length_a	9.366000
_cell_length_b	9.366000
_cell_length_c	6.947000
_cell_angle_alpha	90.000000
_cell_angle_beta	90.000000
_cell_angle_gamma	90.000000
_symmetry_Int_Tables_number 1

loop_
_symmetry_equiv_pos_as_xyz
'x,y,z'

loop_
_atom_site_label
_atom_site_type_symbol
_atom_site_fract_x
_atom_site_fract_y
_atom_site_fract_z
Ca11	Ca1	0.250000	0.250000	0.907100
N11	N1	0.250000	0.250000	0.242000
N21	N2	0.250000	0.250000	0.404200
N31	N3	0.250000	0.250000	0.569900
Ca21	Ca2	0.750000	0.750000	0.092900
N41	N4	0.750000	0.750000	0.758000
N51	N5	0.750000	0.750000	0.595800
N61	N6	0.750000	0.750000	0.430100
N71	N7	0.072100	0.072100	0.910900
N81	N8	0.427900	0.427900	0.910900
N91	N9	0.427900	0.072100	0.910900
N101	N10	0.072100	0.427900	0.910900
N111	N11	0.927900	0.572100	0.089100
N121	N12	0.572100	0.927900	0.089100
N131	N13	0.572100	0.572100	0.089100
N141	N14	0.927900	0.927900	0.089100
N151	N15	0.000000	0.000000	0.000000
N161	N16	0.500000	0.500000	0.000000
N171	N17	0.500000	0.000000	0.000000
N181	N18	0.000000	0.500000	0.000000
