data_VEDFUH_clean_PM
_symmetry_space_group_name_H-M	'P1'
_cell_length_a	11.379000
_cell_length_b	13.386000
_cell_length_c	25.904000
_cell_angle_alpha	90.000000
_cell_angle_beta	90.000000
_cell_angle_gamma	90.000000
_symmetry_Int_Tables_number 1

loop_
_symmetry_equiv_pos_as_xyz
'x,y,z'

loop_
_atom_site_label
_atom_site_type_symbol
_atom_site_fract_x
_atom_site_fract_y
_atom_site_fract_z
Co11	Co1	0.844320	0.443530	0.421990
Co21	Co2	0.098130	0.553920	0.361330
O11	O1	0.916300	0.573000	0.384980
H11	H1	0.911200	0.630400	0.409000
H21	H2	0.868300	0.589000	0.354200
O21	O2	0.471500	0.769500	0.563330
O31	O3	0.719600	0.603300	0.336330
O41	O4	0.698500	0.451000	0.373520
O51	O5	0.646000	0.826200	0.592540
O61	O6	0.925600	0.349500	0.367430
O71	O7	0.049200	0.436300	0.316230
O81	O8	0.140700	0.453500	0.420340
O91	O9	0.984200	0.436300	0.473090
N11	N1	0.265700	0.182000	0.541010
N21	N2	0.931700	0.154400	0.202510
N31	N3	0.757500	0.542100	0.476770
N41	N4	0.282600	0.543600	0.342690
C11	C1	0.340000	0.455600	0.346600
H31	H3	0.294900	0.395900	0.347800
C21	C2	0.288600	0.198200	0.490900
H41	H4	0.344700	0.157000	0.474000
C31	C3	0.993000	0.239600	0.196000
H51	H5	0.025400	0.253600	0.163000
C41	C4	0.232200	0.274900	0.462100
H61	H6	0.248900	0.284800	0.426600
C51	C5	0.638200	0.549600	0.477600
H71	H7	0.593500	0.502400	0.458400
C61	C6	0.642400	0.686600	0.535300
C71	C7	0.980500	0.365400	0.326830
C81	C8	0.150500	0.335400	0.488300
C91	C9	0.010800	0.307400	0.235500
H81	H8	0.054300	0.366700	0.229100
C101	C10	0.887600	0.135500	0.249600
H91	H9	0.845300	0.075200	0.255000
C111	C11	0.347200	0.626200	0.339100
H101	H10	0.308300	0.688700	0.336200
C121	C12	0.765300	0.678600	0.535900
H111	H11	0.811300	0.722700	0.556300
C131	C13	0.185700	0.239300	0.564100
H121	H12	0.169300	0.228000	0.599600
C141	C14	0.086500	0.415100	0.457790
C151	C15	0.966200	0.289800	0.283500
C161	C16	0.579500	0.767800	0.565600
C171	C17	0.819100	0.604500	0.505900
H131	H13	0.902300	0.598700	0.506500
C181	C18	0.124800	0.315500	0.538700
H141	H14	0.066200	0.352900	0.556300
C191	C19	0.578900	0.622700	0.505100
H151	H15	0.495800	0.628300	0.503000
C201	C20	0.901900	0.202100	0.291300
H161	H16	0.868500	0.187600	0.324100
C211	C21	0.470900	0.624300	0.339400
H171	H17	0.514900	0.684300	0.336000
C221	C22	0.458700	0.448300	0.348970
H181	H18	0.495000	0.385000	0.353500
C231	C23	0.526900	0.533700	0.344750
C241	C24	0.658600	0.530200	0.351490
Co31	Co3	0.655680	0.556470	0.921990
Co41	Co4	0.401870	0.446080	0.861330
O101	O10	0.583700	0.427000	0.884980
H191	H19	0.588800	0.369600	0.909000
H201	H20	0.631700	0.411000	0.854200
O111	O11	0.028500	0.230500	0.063330
O121	O12	0.780400	0.396700	0.836330
O131	O13	0.801500	0.549000	0.873520
O141	O14	0.854000	0.173800	0.092540
O151	O15	0.574400	0.650500	0.867430
O161	O16	0.450800	0.563700	0.816230
O171	O17	0.359300	0.546500	0.920340
O181	O18	0.515800	0.563700	0.973090
N51	N5	0.234300	0.818000	0.041010
N61	N6	0.568300	0.845600	0.702510
N71	N7	0.742500	0.457900	0.976770
N81	N8	0.217400	0.456400	0.842690
C251	C25	0.160000	0.544400	0.846600
H211	H21	0.205100	0.604100	0.847800
C261	C26	0.211400	0.801800	0.990900
H221	H22	0.155300	0.843000	0.974000
C271	C27	0.507000	0.760400	0.696000
H231	H23	0.474600	0.746400	0.663000
C281	C28	0.267800	0.725100	0.962100
H241	H24	0.251100	0.715200	0.926600
C291	C29	0.861800	0.450400	0.977600
H251	H25	0.906500	0.497600	0.958400
C301	C30	0.857600	0.313400	0.035300
C311	C31	0.519500	0.634600	0.826830
C321	C32	0.349500	0.664600	0.988300
C331	C33	0.489200	0.692600	0.735500
H261	H26	0.445700	0.633300	0.729100
C341	C34	0.612400	0.864500	0.749600
H271	H27	0.654700	0.924800	0.755000
C351	C35	0.152800	0.373800	0.839100
H281	H28	0.191700	0.311300	0.836200
C361	C36	0.734700	0.321400	0.035900
H291	H29	0.688700	0.277300	0.056300
C371	C37	0.314300	0.760700	0.064100
H301	H30	0.330700	0.772000	0.099600
C381	C38	0.413500	0.584900	0.957790
C391	C39	0.533800	0.710200	0.783500
C401	C40	0.920500	0.232200	0.065600
C411	C41	0.680900	0.395500	0.005900
H311	H31	0.597700	0.401300	0.006500
C421	C42	0.375200	0.684500	0.038700
H321	H32	0.433800	0.647100	0.056300
C431	C43	0.921100	0.377300	0.005100
H331	H33	0.004200	0.371700	0.003000
C441	C44	0.598100	0.797900	0.791300
H341	H34	0.631500	0.812400	0.824100
C451	C45	0.029100	0.375700	0.839400
H351	H35	0.985100	0.315700	0.836000
C461	C46	0.041300	0.551700	0.848970
H361	H36	0.005000	0.615000	0.853500
C471	C47	0.973100	0.466300	0.844750
C481	C48	0.841400	0.469800	0.851490
Co51	Co5	0.155680	0.943530	0.078010
Co61	Co6	0.901870	0.053920	0.138670
O191	O19	0.083700	0.073000	0.115020
H371	H37	0.088800	0.130400	0.091000
H381	H38	0.131700	0.089000	0.145800
O201	O20	0.528500	0.269500	0.936670
O211	O21	0.280400	0.103300	0.163670
O221	O22	0.301500	0.951000	0.126480
O231	O23	0.354000	0.326200	0.907460
O241	O24	0.074400	0.849500	0.132570
O251	O25	0.950800	0.936300	0.183770
O261	O26	0.859300	0.953500	0.079660
O271	O27	0.015800	0.936300	0.026910
N91	N9	0.734300	0.682000	0.958990
N101	N10	0.068300	0.654400	0.297490
N111	N11	0.242500	0.042100	0.023230
N121	N12	0.717400	0.043600	0.157310
C491	C49	0.660000	0.955600	0.153400
H391	H39	0.705100	0.895900	0.152200
C501	C50	0.711400	0.698200	0.009100
H401	H40	0.655300	0.657000	0.026000
C511	C51	0.007000	0.739600	0.304000
H411	H41	0.974600	0.753600	0.337000
C521	C52	0.767800	0.774900	0.037900
H421	H42	0.751100	0.784800	0.073400
C531	C53	0.361800	0.049600	0.022400
H431	H43	0.406500	0.002400	0.041600
C541	C54	0.357600	0.186600	0.964700
C551	C55	0.019500	0.865400	0.173170
C561	C56	0.849500	0.835400	0.011700
C571	C57	0.989200	0.807400	0.264500
H441	H44	0.945700	0.866700	0.270900
C581	C58	0.112400	0.635500	0.250400
H451	H45	0.154700	0.575200	0.245000
C591	C59	0.652800	0.126200	0.160900
H461	H46	0.691700	0.188700	0.163800
C601	C60	0.234700	0.178600	0.964100
H471	H47	0.188700	0.222700	0.943700
C611	C61	0.814300	0.739300	0.935900
H481	H48	0.830700	0.728000	0.900400
C621	C62	0.913500	0.915100	0.042210
C631	C63	0.033800	0.789800	0.216500
C641	C64	0.420500	0.267800	0.934400
C651	C65	0.180900	0.104500	0.994100
H491	H49	0.097700	0.098700	0.993500
C661	C66	0.875200	0.815500	0.961300
H501	H50	0.933800	0.852900	0.943700
C671	C67	0.421100	0.122700	0.994900
H511	H51	0.504200	0.128300	0.997000
C681	C68	0.098100	0.702100	0.208700
H521	H52	0.131500	0.687600	0.175900
C691	C69	0.529100	0.124300	0.160600
H531	H53	0.485100	0.184300	0.164000
C701	C70	0.541300	0.948300	0.151030
H541	H54	0.505000	0.885000	0.146500
C711	C71	0.473100	0.033700	0.155250
C721	C72	0.341400	0.030200	0.148510
Co71	Co7	0.344320	0.056470	0.578010
Co81	Co8	0.598130	0.946080	0.638670
O281	O28	0.416300	0.927000	0.615020
H551	H55	0.411200	0.869600	0.591000
H561	H56	0.368300	0.911000	0.645800
O291	O29	0.971500	0.730500	0.436670
O301	O30	0.219600	0.896700	0.663670
O311	O31	0.198500	0.049000	0.626480
O321	O32	0.146000	0.673800	0.407460
O331	O33	0.425600	0.150500	0.632570
O341	O34	0.549200	0.063700	0.683770
O351	O35	0.640700	0.046500	0.579660
O361	O36	0.484200	0.063700	0.526910
N131	N13	0.765700	0.318000	0.458990
N141	N14	0.431700	0.345600	0.797490
N151	N15	0.257500	0.957900	0.523230
N161	N16	0.782600	0.956400	0.657310
C731	C73	0.840000	0.044400	0.653400
H571	H57	0.794900	0.104100	0.652200
C741	C74	0.788600	0.301800	0.509100
H581	H58	0.844700	0.343000	0.526000
C751	C75	0.493000	0.260400	0.804000
H591	H59	0.525400	0.246400	0.837000
C761	C76	0.732200	0.225100	0.537900
H601	H60	0.748900	0.215200	0.573400
C771	C77	0.138200	0.950400	0.522400
H611	H61	0.093500	0.997600	0.541600
C781	C78	0.142400	0.813400	0.464700
C791	C79	0.480500	0.134600	0.673170
C801	C80	0.650500	0.164600	0.511700
C811	C81	0.510800	0.192600	0.764500
H621	H62	0.554300	0.133300	0.770900
C821	C82	0.387600	0.364500	0.750400
H631	H63	0.345300	0.424800	0.745000
C831	C83	0.847200	0.873800	0.660900
H641	H64	0.808300	0.811300	0.663800
C841	C84	0.265300	0.821400	0.464100
H651	H65	0.311300	0.777300	0.443700
C851	C85	0.685700	0.260700	0.435900
H661	H66	0.669300	0.272000	0.400400
C861	C86	0.586500	0.084900	0.542210
C871	C87	0.466200	0.210200	0.716500
C881	C88	0.079500	0.732200	0.434400
C891	C89	0.319100	0.895500	0.494100
H671	H67	0.402300	0.901300	0.493500
C901	C90	0.624800	0.184500	0.461300
H681	H68	0.566200	0.147100	0.443700
C911	C91	0.078900	0.877300	0.494900
H691	H69	0.995800	0.871700	0.497000
C921	C92	0.401900	0.297900	0.708700
H701	H70	0.368500	0.312400	0.675900
C931	C93	0.970900	0.875700	0.660600
H711	H71	0.014900	0.815700	0.664000
C941	C94	0.958700	0.051700	0.651030
H721	H72	0.995000	0.115000	0.646500
C951	C95	0.026900	0.966300	0.655250
C961	C96	0.158600	0.969800	0.648510
