data_VEDFOB_clean_PM
_symmetry_space_group_name_H-M	'P1'
_cell_length_a	11.374900
_cell_length_b	13.359600
_cell_length_c	25.969100
_cell_angle_alpha	90.000000
_cell_angle_beta	90.000000
_cell_angle_gamma	90.000000
_symmetry_Int_Tables_number 1

loop_
_symmetry_equiv_pos_as_xyz
'x,y,z'

loop_
_atom_site_label
_atom_site_type_symbol
_atom_site_fract_x
_atom_site_fract_y
_atom_site_fract_z
Co11	Co1	0.838080	0.058900	0.078950
Co21	Co2	0.094110	0.943700	0.138380
Co31	Co3	0.661920	0.941100	0.578950
Co41	Co4	0.405890	0.056300	0.638380
Co51	Co5	0.161920	0.558900	0.421050
Co61	Co6	0.905890	0.443700	0.361620
Co71	Co7	0.338080	0.441100	0.921050
Co81	Co8	0.594110	0.556300	0.861620
H11	H1	0.864300	0.909300	0.144600
H21	H2	0.907300	0.871200	0.089400
H31	H3	0.308600	0.810600	0.164900
H41	H4	0.286800	0.102400	0.155700
H51	H5	0.364700	0.311800	0.017100
H61	H6	0.273400	0.186100	0.062500
H71	H7	0.041100	0.252400	0.334300
H81	H8	0.047900	0.155600	0.947400
H91	H9	0.585700	0.994800	0.045300
H101	H10	0.843700	0.420100	0.246400
H111	H11	0.510900	0.818000	0.166200
H121	H12	0.491300	0.873900	0.996000
H131	H13	0.147600	0.280500	0.904000
H141	H14	0.073500	0.140600	0.266700
H151	H15	0.806200	0.787900	0.940900
H161	H16	0.489100	0.116100	0.154800
H171	H17	0.859700	0.309300	0.179100
H181	H18	0.892200	0.910500	0.989600
H191	H19	0.635700	0.090700	0.644600
H201	H20	0.592700	0.128800	0.589400
H211	H21	0.191400	0.189400	0.664900
H221	H22	0.213200	0.897600	0.655700
H231	H23	0.135300	0.688200	0.517100
H241	H24	0.226600	0.813900	0.562500
H251	H25	0.458900	0.747600	0.834300
H261	H26	0.452100	0.844400	0.447400
H271	H27	0.914300	0.005200	0.545300
H281	H28	0.656300	0.579900	0.746400
H291	H29	0.989100	0.182000	0.666200
H301	H30	0.008700	0.126100	0.496000
H311	H31	0.352400	0.719500	0.404000
H321	H32	0.426500	0.859400	0.766700
H331	H33	0.693800	0.212100	0.440900
H341	H34	0.010900	0.883900	0.654800
H351	H35	0.640300	0.690700	0.679100
H361	H36	0.607800	0.089500	0.489600
H371	H37	0.135700	0.409300	0.355400
H381	H38	0.092700	0.371200	0.410600
H391	H39	0.691400	0.310600	0.335100
H401	H40	0.713200	0.602400	0.344300
H411	H41	0.635300	0.811800	0.482900
H421	H42	0.726600	0.686100	0.437500
H431	H43	0.958900	0.752400	0.165700
H441	H44	0.952100	0.655600	0.552600
H451	H45	0.414300	0.494800	0.454700
H461	H46	0.156300	0.920100	0.253600
H471	H47	0.489100	0.318000	0.333800
H481	H48	0.508700	0.373900	0.504000
H491	H49	0.852400	0.780500	0.596000
H501	H50	0.926500	0.640600	0.233300
H511	H51	0.193800	0.287900	0.559100
H521	H52	0.510900	0.616100	0.345200
H531	H53	0.140300	0.809300	0.320900
H541	H54	0.107800	0.410500	0.510400
H551	H55	0.364300	0.590700	0.855400
H561	H56	0.407300	0.628800	0.910600
H571	H57	0.808600	0.689400	0.835100
H581	H58	0.786800	0.397600	0.844300
H591	H59	0.864700	0.188200	0.982900
H601	H60	0.773400	0.313900	0.937500
H611	H61	0.541100	0.247600	0.665700
H621	H62	0.547900	0.344400	0.052600
H631	H63	0.085700	0.505200	0.954700
H641	H64	0.343700	0.079900	0.753600
H651	H65	0.010900	0.682000	0.833800
H661	H66	0.991300	0.626100	0.004000
H671	H67	0.647600	0.219500	0.096000
H681	H68	0.573500	0.359400	0.733300
H691	H69	0.306200	0.712100	0.059100
H701	H70	0.989100	0.383900	0.845200
H711	H71	0.359700	0.190700	0.820900
H721	H72	0.392200	0.589500	0.010400
C11	C1	0.345700	0.874200	0.162500
C21	C2	0.332900	0.043200	0.156900
C31	C3	0.297300	0.280800	0.002400
C41	C4	0.243300	0.205300	0.029800
C51	C5	0.004900	0.264700	0.301900
C61	C6	0.113400	0.187500	0.963100
C71	C7	0.577900	0.733200	0.933800
C81	C8	0.631000	0.951700	0.024000
C91	C9	0.889100	0.361100	0.251200
C101	C10	0.466700	0.877900	0.162800
C111	C11	0.574500	0.879300	0.994800
C121	C12	0.980500	0.135300	0.172920
C131	C13	0.149600	0.159100	0.010800
C141	C14	0.172700	0.263200	0.937700
C151	C15	0.023100	0.196600	0.262000
C161	C16	0.084700	0.080900	0.041900
C171	C17	0.967300	0.211700	0.216000
C181	C18	0.758800	0.829000	0.962300
C191	C19	0.453700	0.051800	0.156400
C201	C20	0.899200	0.296100	0.210600
C211	C21	0.809400	0.902100	0.991600
C221	C22	0.638800	0.815000	0.964000
C231	C23	0.523000	0.967400	0.158100
C241	C24	0.655700	0.971900	0.150200
C251	C25	0.154300	0.125800	0.662500
C261	C26	0.167100	0.956800	0.656900
C271	C27	0.202700	0.719200	0.502400
C281	C28	0.256700	0.794700	0.529800
C291	C29	0.495100	0.735300	0.801900
C301	C30	0.386600	0.812500	0.463100
C311	C31	0.922100	0.266800	0.433800
C321	C32	0.869000	0.048300	0.524000
C331	C33	0.610900	0.638900	0.751200
C341	C34	0.033300	0.122100	0.662800
C351	C35	0.925500	0.120700	0.494800
C361	C36	0.519500	0.864700	0.672920
C371	C37	0.350400	0.840900	0.510800
C381	C38	0.327300	0.736800	0.437700
C391	C39	0.476900	0.803400	0.762000
C401	C40	0.415300	0.919100	0.541900
C411	C41	0.532700	0.788300	0.716000
C421	C42	0.741200	0.171000	0.462300
C431	C43	0.046300	0.948200	0.656400
C441	C44	0.600800	0.703900	0.710600
C451	C45	0.690600	0.097900	0.491600
C461	C46	0.861200	0.185000	0.464000
C471	C47	0.977000	0.032600	0.658100
C481	C48	0.844300	0.028100	0.650200
C491	C49	0.654300	0.374200	0.337500
C501	C50	0.667100	0.543200	0.343100
C511	C51	0.702700	0.780800	0.497600
C521	C52	0.756700	0.705300	0.470200
C531	C53	0.995100	0.764700	0.198100
C541	C54	0.886600	0.687500	0.536900
C551	C55	0.422100	0.233200	0.566200
C561	C56	0.369000	0.451700	0.476000
C571	C57	0.110900	0.861100	0.248800
C581	C58	0.533300	0.377900	0.337200
C591	C59	0.425500	0.379300	0.505200
C601	C60	0.019500	0.635300	0.327080
C611	C61	0.850400	0.659100	0.489200
C621	C62	0.827300	0.763200	0.562300
C631	C63	0.976900	0.696600	0.238000
C641	C64	0.915300	0.580900	0.458100
C651	C65	0.032700	0.711700	0.284000
C661	C66	0.241200	0.329000	0.537700
C671	C67	0.546300	0.551800	0.343600
C681	C68	0.100800	0.796100	0.289400
C691	C69	0.190600	0.402100	0.508400
C701	C70	0.361200	0.315000	0.536000
C711	C71	0.477000	0.467400	0.341900
C721	C72	0.344300	0.471900	0.349800
C731	C73	0.845700	0.625800	0.837500
C741	C74	0.832900	0.456800	0.843100
C751	C75	0.797300	0.219200	0.997600
C761	C76	0.743300	0.294700	0.970200
C771	C77	0.504900	0.235300	0.698100
C781	C78	0.613400	0.312500	0.036900
C791	C79	0.077900	0.766800	0.066200
C801	C80	0.131000	0.548300	0.976000
C811	C81	0.389100	0.138900	0.748800
C821	C82	0.966700	0.622100	0.837200
C831	C83	0.074500	0.620700	0.005200
C841	C84	0.480500	0.364700	0.827080
C851	C85	0.649600	0.340900	0.989200
C861	C86	0.672700	0.236800	0.062300
C871	C87	0.523100	0.303400	0.738000
C881	C88	0.584700	0.419100	0.958100
C891	C89	0.467300	0.288300	0.784000
C901	C90	0.258800	0.671000	0.037700
C911	C91	0.953700	0.448200	0.843600
C921	C92	0.399200	0.203900	0.789400
C931	C93	0.309400	0.597900	0.008400
C941	C94	0.138800	0.685000	0.036000
C951	C95	0.023000	0.532600	0.841900
C961	C96	0.155700	0.528100	0.849800
N11	N1	0.278400	0.955000	0.159000
N21	N2	0.749100	0.962400	0.022710
N31	N3	0.938400	0.347000	0.296460
N41	N4	0.261000	0.312200	0.957320
N51	N5	0.221600	0.045000	0.659000
N61	N6	0.750900	0.037600	0.522710
N71	N7	0.561600	0.653000	0.796460
N81	N8	0.239000	0.687800	0.457320
N91	N9	0.721600	0.455000	0.341000
N101	N10	0.250900	0.462400	0.477290
N111	N11	0.061600	0.847000	0.203540
N121	N12	0.739000	0.812200	0.542680
N131	N13	0.778400	0.545000	0.841000
N141	N14	0.249100	0.537600	0.977290
N151	N15	0.438400	0.153000	0.703540
N161	N16	0.761000	0.187800	0.042680
O11	O1	0.912400	0.927300	0.114160
O21	O2	0.715100	0.899000	0.164420
O31	O3	0.470000	0.724500	0.940080
O41	O4	0.640800	0.679800	0.905140
O51	O5	0.693300	0.049000	0.127420
O61	O6	0.050100	0.064900	0.182250
O71	O7	0.920300	0.149700	0.133520
O81	O8	0.138500	0.040400	0.077630
O91	O9	0.978400	0.066300	0.028960
O101	O10	0.587600	0.072700	0.614160
O111	O11	0.784900	0.101000	0.664420
O121	O12	0.030000	0.275500	0.440080
O131	O13	0.859200	0.320200	0.405140
O141	O14	0.806700	0.951000	0.627420
O151	O15	0.449900	0.935100	0.682250
O161	O16	0.579700	0.850300	0.633520
O171	O17	0.361500	0.959600	0.577630
O181	O18	0.521600	0.933700	0.528960
O191	O19	0.087600	0.427300	0.385840
O201	O20	0.284900	0.399000	0.335580
O211	O21	0.530000	0.224500	0.559920
O221	O22	0.359200	0.179800	0.594860
O231	O23	0.306700	0.549000	0.372580
O241	O24	0.949900	0.564900	0.317750
O251	O25	0.079700	0.649700	0.366480
O261	O26	0.861500	0.540400	0.422370
O271	O27	0.021600	0.566300	0.471040
O281	O28	0.412400	0.572700	0.885840
O291	O29	0.215100	0.601000	0.835580
O301	O30	0.970000	0.775500	0.059920
O311	O31	0.140800	0.820200	0.094860
O321	O32	0.193300	0.451000	0.872580
O331	O33	0.550100	0.435100	0.817750
O341	O34	0.420300	0.350300	0.866480
O351	O35	0.638500	0.459600	0.922370
O361	O36	0.478400	0.433700	0.971040
