data_VEDGIW_clean_PM
_symmetry_space_group_name_H-M	'P1'
_cell_length_a	11.465900
_cell_length_b	13.273200
_cell_length_c	26.120100
_cell_angle_alpha	90.000000
_cell_angle_beta	90.000000
_cell_angle_gamma	90.000000
_symmetry_Int_Tables_number 1

loop_
_symmetry_equiv_pos_as_xyz
'x,y,z'

loop_
_atom_site_label
_atom_site_type_symbol
_atom_site_fract_x
_atom_site_fract_y
_atom_site_fract_z
Co11	Co1	0.848790	0.055710	0.921670
Co21	Co2	0.105160	0.950320	0.859910
Co31	Co3	0.651210	0.944290	0.421670
Co41	Co4	0.394840	0.049680	0.359910
Co51	Co5	0.151210	0.555710	0.578330
Co61	Co6	0.894840	0.450320	0.640090
Co71	Co7	0.348790	0.444290	0.078330
Co81	Co8	0.605160	0.549680	0.140090
H11	H1	0.921100	0.870000	0.908600
H21	H2	0.875800	0.910600	0.854500
H31	H3	0.605800	0.985000	0.955400
H41	H4	0.238300	0.230800	0.926200
H51	H5	0.025800	0.253800	0.664500
H61	H6	0.837400	0.425300	0.755100
H71	H7	0.327600	0.358400	0.971400
H81	H8	0.313600	0.814400	0.830600
H91	H9	0.512700	0.860800	0.003000
H101	H10	0.061000	0.141300	0.730700
H111	H11	0.824900	0.781000	0.060700
H121	H12	0.859200	0.313200	0.822400
H131	H13	0.179400	0.264600	0.098800
H141	H14	0.081500	0.141200	0.055900
H151	H15	0.514900	0.815200	0.829700
H161	H16	0.908900	0.904800	0.010300
H171	H17	0.303400	0.110000	0.849000
H181	H18	0.505300	0.114500	0.854100
H191	H19	0.578900	0.130000	0.408600
H201	H20	0.624200	0.089400	0.354500
H211	H21	0.894200	0.015000	0.455400
H221	H22	0.261700	0.769200	0.426200
H231	H23	0.474200	0.746200	0.164500
H241	H24	0.662600	0.574700	0.255100
H251	H25	0.172400	0.641600	0.471400
H261	H26	0.186400	0.185600	0.330600
H271	H27	0.987300	0.139200	0.503000
H281	H28	0.439000	0.858700	0.230700
H291	H29	0.675100	0.219000	0.560700
H301	H30	0.640800	0.686800	0.322400
H311	H31	0.320600	0.735400	0.598800
H321	H32	0.418500	0.858800	0.555900
H331	H33	0.985100	0.184800	0.329700
H341	H34	0.591100	0.095200	0.510300
H351	H35	0.196600	0.890000	0.349000
H361	H36	0.994700	0.885500	0.354100
H371	H37	0.078900	0.370000	0.591400
H381	H38	0.124200	0.410600	0.645500
H391	H39	0.394200	0.485000	0.544600
H401	H40	0.761700	0.730800	0.573800
H411	H41	0.974200	0.753800	0.835500
H421	H42	0.162600	0.925300	0.744900
H431	H43	0.672400	0.858400	0.528600
H441	H44	0.686400	0.314400	0.669400
H451	H45	0.487300	0.360800	0.497000
H461	H46	0.939000	0.641300	0.769300
H471	H47	0.175100	0.281000	0.439300
H481	H48	0.140800	0.813200	0.677600
H491	H49	0.820600	0.764600	0.401200
H501	H50	0.918500	0.641200	0.444100
H511	H51	0.485100	0.315200	0.670300
H521	H52	0.091100	0.404800	0.489700
H531	H53	0.696600	0.610000	0.651000
H541	H54	0.494700	0.614500	0.645900
H551	H55	0.421100	0.630000	0.091400
H561	H56	0.375800	0.589400	0.145500
H571	H57	0.105800	0.515000	0.044600
H581	H58	0.738300	0.269200	0.073800
H591	H59	0.525800	0.246200	0.335500
H601	H60	0.337400	0.074700	0.244900
H611	H61	0.827600	0.141600	0.028600
H621	H62	0.813600	0.685600	0.169400
H631	H63	0.012700	0.639200	0.997000
H641	H64	0.561000	0.358700	0.269300
H651	H65	0.324900	0.719000	0.939300
H661	H66	0.359200	0.186800	0.177600
H671	H67	0.679400	0.235400	0.901200
H681	H68	0.581500	0.358800	0.944100
H691	H69	0.014900	0.684800	0.170300
H701	H70	0.408900	0.595200	0.989700
H711	H71	0.803400	0.390000	0.151000
H721	H72	0.005300	0.385500	0.145900
C11	C1	0.651200	0.941800	0.976400
C21	C2	0.224800	0.237000	0.961900
C31	C3	0.980300	0.138800	0.826400
C41	C4	0.992700	0.266500	0.697200
C51	C5	0.881800	0.365800	0.749800
C61	C6	0.279100	0.311900	0.989100
C71	C7	0.353400	0.876600	0.834900
C81	C8	0.595000	0.868100	0.005200
C91	C9	0.533000	0.964900	0.843900
C101	C10	0.013200	0.198700	0.736400
C111	C11	0.657700	0.806400	0.036700
C121	C12	0.964400	0.214700	0.783600
C131	C13	0.777600	0.821100	0.038800
C141	C14	0.597000	0.725900	0.066900
C151	C15	0.895700	0.300200	0.790400
C161	C16	0.191800	0.257800	0.063000
C171	C17	0.133900	0.184000	0.037900
C181	C18	0.473400	0.876200	0.835300
C191	C19	0.151400	0.171400	0.986100
C201	C20	0.826900	0.895500	0.008500
C211	C21	0.090600	0.088400	0.955200
C221	C22	0.346500	0.049000	0.846400
C231	C23	0.467000	0.051900	0.848900
C241	C24	0.664300	0.967500	0.851600
C251	C25	0.848800	0.058200	0.476400
C261	C26	0.275200	0.763000	0.461900
C271	C27	0.519700	0.861200	0.326400
C281	C28	0.507300	0.733500	0.197200
C291	C29	0.618200	0.634200	0.249800
C301	C30	0.220900	0.688100	0.489100
C311	C31	0.146600	0.123400	0.334900
C321	C32	0.905000	0.131900	0.505200
C331	C33	0.967000	0.035100	0.343900
C341	C34	0.486800	0.801300	0.236400
C351	C35	0.842300	0.193600	0.536700
C361	C36	0.535600	0.785300	0.283600
C371	C37	0.722400	0.178900	0.538800
C381	C38	0.903000	0.274100	0.566900
C391	C39	0.604300	0.699800	0.290400
C401	C40	0.308200	0.742200	0.563000
C411	C41	0.366100	0.816000	0.537900
C421	C42	0.026600	0.123800	0.335300
C431	C43	0.348600	0.828600	0.486100
C441	C44	0.673100	0.104500	0.508500
C451	C45	0.409400	0.911600	0.455200
C461	C46	0.153500	0.951000	0.346400
C471	C47	0.033000	0.948100	0.348900
C481	C48	0.835700	0.032500	0.351600
C491	C49	0.348800	0.441800	0.523600
C501	C50	0.775200	0.737000	0.538100
C511	C51	0.019700	0.638800	0.673600
C521	C52	0.007300	0.766500	0.802800
C531	C53	0.118200	0.865800	0.750200
C541	C54	0.720900	0.811900	0.510900
C551	C55	0.646600	0.376600	0.665100
C561	C56	0.405000	0.368100	0.494800
C571	C57	0.467000	0.464900	0.656100
C581	C58	0.986800	0.698700	0.763600
C591	C59	0.342300	0.306400	0.463300
C601	C60	0.035600	0.714700	0.716400
C611	C61	0.222400	0.321100	0.461200
C621	C62	0.403000	0.225900	0.433100
C631	C63	0.104300	0.800200	0.709600
C641	C64	0.808200	0.757800	0.437000
C651	C65	0.866100	0.684000	0.462100
C661	C66	0.526600	0.376200	0.664700
C671	C67	0.848600	0.671400	0.513900
C681	C68	0.173100	0.395500	0.491500
C691	C69	0.909400	0.588400	0.544800
C701	C70	0.653500	0.549000	0.653600
C711	C71	0.533000	0.551900	0.651100
C721	C72	0.335700	0.467500	0.648400
C731	C73	0.151200	0.558200	0.023600
C741	C74	0.724800	0.263000	0.038100
C751	C75	0.480300	0.361200	0.173600
C761	C76	0.492700	0.233500	0.302800
C771	C77	0.381800	0.134200	0.250200
C781	C78	0.779100	0.188100	0.010900
C791	C79	0.853400	0.623400	0.165100
C801	C80	0.095000	0.631900	0.994800
C811	C81	0.033000	0.535100	0.156100
C821	C82	0.513200	0.301300	0.263600
C831	C83	0.157700	0.693600	0.963300
C841	C84	0.464400	0.285300	0.216400
C851	C85	0.277600	0.678900	0.961200
C861	C86	0.097000	0.774100	0.933100
C871	C87	0.395700	0.199800	0.209600
C881	C88	0.691800	0.242200	0.937000
C891	C89	0.633900	0.316000	0.962100
C901	C90	0.973400	0.623800	0.164700
C911	C91	0.651400	0.328600	0.013900
C921	C92	0.326900	0.604500	0.991500
C931	C93	0.590600	0.411600	0.044800
C941	C94	0.846500	0.451000	0.153600
C951	C95	0.967000	0.448100	0.151100
C961	C96	0.164300	0.532500	0.148400
N11	N1	0.265500	0.321500	0.040200
N21	N2	0.927400	0.349800	0.703700
N31	N3	0.767700	0.953900	0.977400
N41	N4	0.289400	0.961300	0.840500
N51	N5	0.234500	0.678500	0.540200
N61	N6	0.572600	0.650200	0.203700
N71	N7	0.732300	0.046100	0.477400
N81	N8	0.210600	0.038700	0.340500
N91	N9	0.734500	0.821500	0.459800
N101	N10	0.072600	0.849800	0.796300
N111	N11	0.232300	0.453900	0.522600
N121	N12	0.710600	0.461300	0.659500
N131	N13	0.765500	0.178500	0.959800
N141	N14	0.427400	0.150200	0.296300
N151	N15	0.267700	0.546100	0.022600
N161	N16	0.789400	0.538700	0.159500
O11	O1	0.923800	0.928000	0.884790
O21	O2	0.722100	0.891400	0.838200
O31	O3	0.490200	0.720500	0.061300
O41	O4	0.704300	0.043800	0.872900
O51	O5	0.052200	0.068500	0.816400
O61	O6	0.924000	0.151300	0.866400
O71	O7	0.988500	0.065800	0.970600
O81	O8	0.658400	0.671100	0.095000
O91	O9	0.144500	0.052300	0.918320
O101	O10	0.576200	0.072000	0.384790
O111	O11	0.777900	0.108600	0.338200
O121	O12	0.009800	0.279500	0.561300
O131	O13	0.795700	0.956200	0.372900
O141	O14	0.447800	0.931500	0.316400
O151	O15	0.576000	0.848700	0.366400
O161	O16	0.511500	0.934200	0.470600
O171	O17	0.841600	0.328900	0.595000
O181	O18	0.355500	0.947700	0.418320
O191	O19	0.076200	0.428000	0.615210
O201	O20	0.277900	0.391400	0.661800
O211	O21	0.509800	0.220500	0.438700
O221	O22	0.295700	0.543800	0.627100
O231	O23	0.947800	0.568500	0.683600
O241	O24	0.076000	0.651300	0.633600
O251	O25	0.011500	0.565800	0.529400
O261	O26	0.341600	0.171100	0.405000
O271	O27	0.855500	0.552300	0.581680
O281	O28	0.423800	0.572000	0.115210
O291	O29	0.222100	0.608600	0.161800
O301	O30	0.990200	0.779500	0.938700
O311	O31	0.204300	0.456200	0.127100
O321	O32	0.552200	0.431500	0.183600
O331	O33	0.424000	0.348700	0.133600
O341	O34	0.488500	0.434200	0.029400
O351	O35	0.158400	0.828900	0.905000
O361	O36	0.644500	0.447700	0.081680
