data_VEFJOG_charged_PM
_symmetry_space_group_name_H-M	'P1'
_cell_length_a	10.410000
_cell_length_b	13.126000
_cell_length_c	19.282000
_cell_angle_alpha	86.692000
_cell_angle_beta	78.256000
_cell_angle_gamma	76.867000
_symmetry_Int_Tables_number 1

loop_
_symmetry_equiv_pos_as_xyz
'x,y,z'

loop_
_atom_site_label
_atom_site_type_symbol
_atom_site_fract_x
_atom_site_fract_y
_atom_site_fract_z
Ag11	Ag1	0.089140	0.185520	0.616850
Ag21	Ag2	0.280390	0.371870	0.148380
Ag31	Ag3	0.910860	0.814480	0.383150
Ag41	Ag4	0.719610	0.628130	0.851620
H11	H1	0.994500	0.205200	0.781700
H21	H2	0.364800	0.078600	0.664200
H31	H3	0.079200	0.610000	0.734600
H41	H4	0.010700	0.644100	0.864300
H51	H5	0.931700	0.500800	0.924000
H61	H6	0.713400	0.399900	0.913800
H71	H7	0.701600	0.168000	0.059300
H81	H8	0.904900	0.077900	0.999300
H91	H9	0.013700	0.147400	0.898300
H101	H10	0.319000	0.329700	0.631200
H111	H11	0.427700	0.387700	0.525200
H121	H12	0.313800	0.525800	0.465200
H131	H13	0.987000	0.543700	0.616500
H141	H14	0.576600	0.204500	0.389200
H151	H15	0.780100	0.231800	0.426200
H161	H16	0.762900	0.201200	0.555700
H171	H17	0.547300	0.958800	0.703400
H181	H18	0.753000	0.043400	0.835700
H191	H19	0.750900	0.201300	0.776300
H201	H20	0.639300	0.240200	0.681900
H211	H21	0.337800	0.287300	0.406100
H221	H22	0.200800	0.303900	0.325200
H231	H23	0.071000	0.182900	0.324400
H241	H24	0.221100	0.027200	0.486500
H251	H25	0.005500	0.794800	0.218300
H261	H26	0.635200	0.921400	0.335800
H271	H27	0.920800	0.390000	0.265400
H281	H28	0.989300	0.355900	0.135700
H291	H29	0.068300	0.499200	0.076000
H301	H30	0.286600	0.600100	0.086200
H311	H31	0.298400	0.832000	0.940700
H321	H32	0.095100	0.922100	0.000700
H331	H33	0.986300	0.852600	0.101700
H341	H34	0.681000	0.670300	0.368800
H351	H35	0.572300	0.612300	0.474800
H361	H36	0.686200	0.474200	0.534800
H371	H37	0.013000	0.456300	0.383500
H381	H38	0.423400	0.795500	0.610800
H391	H39	0.219900	0.768200	0.573800
H401	H40	0.237100	0.798800	0.444300
H411	H41	0.452700	0.041200	0.296600
H421	H42	0.247000	0.956600	0.164300
H431	H43	0.249100	0.798700	0.223700
H441	H44	0.360700	0.759800	0.318100
H451	H45	0.662200	0.712700	0.593900
H461	H46	0.799200	0.696100	0.674800
H471	H47	0.929000	0.817100	0.675600
H481	H48	0.778900	0.972800	0.513500
C11	C1	0.027100	0.467300	0.760800
C21	C2	0.037400	0.569000	0.769000
C31	C3	0.973300	0.599200	0.838600
C41	C4	0.922000	0.515900	0.874800
C51	C5	0.957300	0.432600	0.826500
C61	C6	0.944400	0.330600	0.833500
C71	C7	0.876400	0.282300	0.897400
C81	C8	0.753200	0.335900	0.931900
C91	C9	0.687300	0.295000	0.993900
C101	C10	0.560200	0.349500	0.031800
C111	C11	0.745300	0.196800	0.018600
C121	C12	0.866100	0.143300	0.982800
C131	C13	0.931500	0.185100	0.922400
C141	C14	0.074500	0.397500	0.704700
C151	C15	0.142100	0.430100	0.634400
C161	C16	0.273300	0.384700	0.606800
C171	C17	0.338600	0.419200	0.543600
C181	C18	0.270000	0.501300	0.507600
C191	C19	0.137100	0.547100	0.534200
C201	C20	0.067700	0.631000	0.495500
C211	C21	0.075600	0.511800	0.597700
C221	C22	0.378300	0.146700	0.509300
C231	C23	0.508300	0.168700	0.495900
C241	C24	0.593400	0.197200	0.435000
C251	C25	0.707700	0.212200	0.456500
C261	C26	0.699800	0.194300	0.529400
C271	C27	0.577200	0.163600	0.555000
C281	C28	0.519500	0.125900	0.619900
C291	C29	0.582900	0.103200	0.682000
C301	C30	0.588000	0.008200	0.717500
C311	C31	0.653300	0.986700	0.773700
C321	C32	0.660400	0.887000	0.807800
C331	C33	0.711700	0.058600	0.796700
C341	C34	0.709100	0.152800	0.762000
C351	C35	0.643000	0.175600	0.704900
C361	C36	0.293800	0.156100	0.455600
C371	C37	0.286000	0.238200	0.406100
C381	C38	0.204300	0.248400	0.357500
C391	C39	0.127500	0.176100	0.356900
C401	C40	0.134600	0.093000	0.404700
C411	C41	0.060400	0.012800	0.400000
C421	C42	0.217300	0.082900	0.454300
C431	C43	0.522000	0.480500	0.274500
C441	C44	0.972900	0.532700	0.239200
C451	C45	0.962600	0.431000	0.231000
C461	C46	0.026700	0.400800	0.161400
C471	C47	0.078000	0.484100	0.125200
C481	C48	0.042700	0.567400	0.173500
C491	C49	0.055600	0.669400	0.166500
C501	C50	0.123600	0.717700	0.102600
C511	C51	0.246800	0.664100	0.068100
C521	C52	0.312700	0.705000	0.006100
C531	C53	0.439800	0.650500	0.968200
C541	C54	0.254700	0.803200	0.981400
C551	C55	0.133900	0.856700	0.017200
C561	C56	0.068500	0.814900	0.077600
C571	C57	0.925500	0.602500	0.295300
C581	C58	0.857900	0.569900	0.365600
C591	C59	0.726700	0.615300	0.393200
C601	C60	0.661400	0.580800	0.456400
C611	C61	0.730000	0.498700	0.492400
C621	C62	0.862900	0.452900	0.465800
C631	C63	0.932300	0.369000	0.504500
C641	C64	0.924400	0.488200	0.402300
C651	C65	0.621700	0.853300	0.490700
C661	C66	0.491700	0.831300	0.504100
C671	C67	0.406600	0.802800	0.565000
C681	C68	0.292300	0.787800	0.543500
C691	C69	0.300200	0.805700	0.470600
C701	C70	0.422800	0.836400	0.445000
C711	C71	0.480500	0.874100	0.380100
C721	C72	0.417100	0.896800	0.318000
C731	C73	0.412000	0.991800	0.282500
C741	C74	0.346700	0.013300	0.226300
C751	C75	0.339600	0.113000	0.192200
C761	C76	0.288300	0.941400	0.203300
C771	C77	0.290900	0.847200	0.238000
C781	C78	0.357000	0.824400	0.295100
C791	C79	0.706200	0.843900	0.544400
C801	C80	0.714000	0.761800	0.593900
C811	C81	0.795700	0.751600	0.642500
C821	C82	0.872500	0.823900	0.643100
C831	C83	0.865400	0.907000	0.595300
C841	C84	0.939600	0.987200	0.600000
C851	C85	0.782700	0.917100	0.545700
C861	C86	0.478000	0.519500	0.725500
S11	S1	0.341600	0.521100	0.271440
S21	S2	0.658400	0.478900	0.728560
N11	N1	0.000000	0.269600	0.776600
N21	N2	0.064200	0.297800	0.711600
N31	N3	0.011800	0.696000	0.464300
N41	N4	0.459800	0.390800	0.063200
N51	N5	0.399100	0.103600	0.624200
N61	N6	0.324300	0.115800	0.572900
N71	N7	0.007200	0.949700	0.395900
N81	N8	0.667000	0.804200	0.832100
N91	N9	0.000000	0.730400	0.223400
N101	N10	0.935800	0.702200	0.288400
N111	N11	0.988200	0.304000	0.535700
N121	N12	0.540200	0.609200	0.936800
N131	N13	0.600900	0.896400	0.375800
N141	N14	0.675700	0.884200	0.427100
N151	N15	0.992800	0.050300	0.604100
N161	N16	0.333000	0.195800	0.167900
O11	O1	0.343400	0.590100	0.213200
O21	O2	0.279900	0.568700	0.336000
O31	O3	0.307100	0.427900	0.258500
O41	O4	0.656600	0.409900	0.786800
O51	O5	0.720100	0.431300	0.664000
O61	O6	0.692900	0.572100	0.741500
F11	F1	0.563000	0.560300	0.286200
F21	F2	0.526800	0.418400	0.332200
F31	F3	0.586300	0.431800	0.222100
F41	F4	0.437000	0.439700	0.713800
F51	F5	0.473200	0.581600	0.667800
F61	F6	0.413700	0.568200	0.777900
C871	C87	0.147100	0.858200	0.782200
S31	S3	0.169800	0.984610	0.787660
O71	O7	0.182700	0.985200	0.862900
O81	O8	0.049900	0.049300	0.769600
O91	O9	0.285000	0.989900	0.737000
F71	F7	0.139700	0.842000	0.713700
F81	F8	0.033900	0.847300	0.819600
F91	F9	0.237900	0.787300	0.801400
C881	C88	0.852900	0.141800	0.217800
S41	S4	0.830200	0.015390	0.212340
O101	O10	0.817300	0.014800	0.137100
O111	O11	0.950100	0.950700	0.230400
O121	O12	0.715000	0.010100	0.263000
F101	F10	0.860300	0.158000	0.286300
F111	F11	0.966100	0.152700	0.180400
F121	F12	0.762100	0.212700	0.198600
