data_VEGMIE01_charged_PM
_symmetry_space_group_name_H-M	'P1'
_cell_length_a	9.779400
_cell_length_b	17.302600
_cell_length_c	18.227400
_cell_angle_alpha	92.417200
_cell_angle_beta	90.000000
_cell_angle_gamma	106.415000
_symmetry_Int_Tables_number 1

loop_
_symmetry_equiv_pos_as_xyz
'x,y,z'

loop_
_atom_site_label
_atom_site_type_symbol
_atom_site_fract_x
_atom_site_fract_y
_atom_site_fract_z
Co11	Co1	0.144910	0.692380	0.002100
Co21	Co2	0.452540	0.307630	0.497900
Co31	Co3	0.855090	0.307630	0.997900
Co41	Co4	0.547460	0.692370	0.502100
Co51	Co5	0.000000	0.500000	0.000000
Co61	Co6	0.500000	0.500000	0.500000
H11	H1	0.590780	0.925880	0.093070
H21	H2	0.289580	0.929840	0.923130
H31	H3	0.530270	0.572220	0.883800
H41	H4	0.303050	0.505640	0.083910
H51	H5	0.007020	0.742940	0.222650
H61	H6	0.877180	0.736240	0.339720
H71	H7	0.622680	0.496520	0.276670
H81	H8	0.748620	0.504520	0.158490
H91	H9	0.664900	0.074120	0.406930
H101	H10	0.359740	0.070160	0.576870
H111	H11	0.958050	0.427780	0.616200
H121	H12	0.797410	0.494360	0.416090
H131	H13	0.264080	0.257060	0.277350
H141	H14	0.140940	0.263760	0.160280
H151	H15	0.126160	0.503480	0.223330
H161	H16	0.244100	0.495480	0.341510
H171	H17	0.409220	0.074120	0.906930
H181	H18	0.710420	0.070160	0.076870
H191	H19	0.469730	0.427780	0.116200
H201	H20	0.696950	0.494360	0.916090
H211	H21	0.992980	0.257060	0.777350
H221	H22	0.122820	0.263760	0.660280
H231	H23	0.377320	0.503480	0.723330
H241	H24	0.251380	0.495480	0.841510
H251	H25	0.335100	0.925880	0.593070
H261	H26	0.640260	0.929840	0.423130
H271	H27	0.041950	0.572220	0.383800
H281	H28	0.202590	0.505640	0.583910
H291	H29	0.735920	0.742940	0.722650
H301	H30	0.859060	0.736240	0.839720
H311	H31	0.873840	0.496520	0.776670
H321	H32	0.755900	0.504520	0.658490
C11	C1	0.358430	0.831080	0.019910
C21	C2	0.432490	0.918360	0.009020
C31	C3	0.551090	0.958260	0.052370
C41	C4	0.381820	0.960540	0.956740
C51	C5	0.308510	0.592460	0.962700
C61	C6	0.406040	0.543580	0.981800
C71	C7	0.517180	0.540500	0.934450
C81	C8	0.389060	0.503080	0.047310
C91	C9	0.955660	0.630300	0.110000
C101	C10	0.883460	0.624840	0.182520
C111	C11	0.921500	0.689680	0.234070
C121	C12	0.849380	0.685660	0.300120
C131	C13	0.740700	0.616120	0.315150
C141	C14	0.705390	0.550720	0.264430
C151	C15	0.776340	0.555140	0.198040
C161	C16	0.660590	0.611780	0.385350
C171	C17	0.527350	0.168920	0.480090
C181	C18	0.514130	0.081640	0.490980
C191	C19	0.592830	0.041740	0.447630
C201	C20	0.421280	0.039460	0.543260
C211	C21	0.716050	0.407540	0.537300
C221	C22	0.862460	0.456420	0.518200
C231	C23	0.976680	0.459500	0.565550
C241	C24	0.885980	0.496920	0.452690
C251	C25	0.325360	0.369700	0.390000
C261	C26	0.258620	0.375160	0.317480
C271	C27	0.231820	0.310320	0.265930
C281	C28	0.163720	0.314340	0.199880
C291	C29	0.124580	0.383880	0.184850
C301	C30	0.154670	0.449280	0.235570
C311	C31	0.221200	0.444860	0.301960
C321	C32	0.048810	0.388220	0.114650
C331	C33	0.641570	0.168920	0.980090
C341	C34	0.567510	0.081640	0.990980
C351	C35	0.448910	0.041740	0.947630
C361	C36	0.618180	0.039460	0.043260
C371	C37	0.691490	0.407540	0.037300
C381	C38	0.593960	0.456420	0.018200
C391	C39	0.482820	0.459500	0.065550
C401	C40	0.610940	0.496920	0.952690
C411	C41	0.044340	0.369700	0.890000
C421	C42	0.116540	0.375160	0.817480
C431	C43	0.078500	0.310320	0.765930
C441	C44	0.150620	0.314340	0.699880
C451	C45	0.259300	0.383880	0.684850
C461	C46	0.294610	0.449280	0.735570
C471	C47	0.223660	0.444860	0.801960
C481	C48	0.339410	0.388220	0.614650
C491	C49	0.472650	0.831080	0.519910
C501	C50	0.485870	0.918360	0.509020
C511	C51	0.407170	0.958260	0.552370
C521	C52	0.578720	0.960540	0.456740
C531	C53	0.283950	0.592460	0.462700
C541	C54	0.137540	0.543580	0.481800
C551	C55	0.023320	0.540500	0.434450
C561	C56	0.114020	0.503080	0.547310
C571	C57	0.674640	0.630300	0.610000
C581	C58	0.741380	0.624840	0.682520
C591	C59	0.768180	0.689680	0.734070
C601	C60	0.836280	0.685660	0.800120
C611	C61	0.875420	0.616120	0.815150
C621	C62	0.845330	0.550720	0.764430
C631	C63	0.778800	0.555140	0.698040
C641	C64	0.951190	0.611780	0.885350
O11	O1	0.256270	0.798260	0.973810
O21	O2	0.393400	0.794680	0.070450
O31	O3	0.207700	0.592980	0.008930
O41	O4	0.328420	0.632280	0.906850
O51	O5	0.056380	0.693420	0.099700
O61	O6	0.910700	0.573360	0.063050
O71	O7	0.670470	0.678300	0.419820
O81	O8	0.589650	0.543220	0.404120
O91	O9	0.458010	0.201740	0.526190
O101	O10	0.598720	0.205320	0.429550
O111	O11	0.614720	0.407020	0.491070
O121	O12	0.696140	0.367720	0.593150
O131	O13	0.362960	0.306580	0.400300
O141	O14	0.337340	0.426640	0.436950
O151	O15	0.992170	0.321700	0.080180
O161	O16	0.046430	0.456780	0.095880
O171	O17	0.743730	0.201740	0.026190
O181	O18	0.606600	0.205320	0.929550
O191	O19	0.792300	0.407020	0.991070
O201	O20	0.671580	0.367720	0.093150
O211	O21	0.943620	0.306580	0.900300
O221	O22	0.089300	0.426640	0.936950
O231	O23	0.329530	0.321700	0.580180
O241	O24	0.410350	0.456780	0.595880
O251	O25	0.541990	0.798260	0.473810
O261	O26	0.401280	0.794680	0.570450
O271	O27	0.385280	0.592980	0.508930
O281	O28	0.303860	0.632280	0.406850
O291	O29	0.637040	0.693420	0.599700
O301	O30	0.662660	0.573360	0.563050
O311	O31	0.007830	0.678300	0.919820
O321	O32	0.953570	0.543220	0.904120
H331	H33	0.434460	0.785420	0.834660
H341	H34	0.289860	0.707340	0.840810
H351	H35	0.446720	0.756980	0.703530
H361	H36	0.465520	0.678940	0.758340
H371	H37	0.202150	0.684120	0.676240
H381	H38	0.307860	0.621000	0.657530
H391	H39	0.207370	0.610460	0.736510
H401	H40	0.161780	0.772220	0.757040
H411	H41	0.210360	0.822240	0.843710
H421	H42	0.369390	0.864180	0.702680
H431	H43	0.268740	0.918720	0.747610
H441	H44	0.424400	0.911080	0.787250
C651	C65	0.390630	0.711040	0.740750
C661	C66	0.267920	0.652260	0.699740
C671	C67	0.252110	0.804980	0.791910
C681	C68	0.334380	0.880200	0.754610
N11	N1	0.344220	0.751520	0.806570
H451	H45	0.649040	0.214580	0.665340
H461	H46	0.582520	0.292660	0.659190
H471	H47	0.689740	0.243020	0.796470
H481	H48	0.786580	0.321060	0.741660
H491	H49	0.518030	0.315880	0.823760
H501	H50	0.686860	0.379000	0.842470
H511	H51	0.596910	0.389540	0.763490
H521	H52	0.389560	0.227780	0.742960
H531	H53	0.388120	0.177760	0.656290
H541	H54	0.505210	0.135820	0.797320
H551	H55	0.350020	0.081280	0.752390
H561	H56	0.513320	0.088920	0.712750
C691	C69	0.679590	0.288960	0.759250
C701	C70	0.615660	0.347740	0.800260
C711	C71	0.447130	0.195020	0.708090
C721	C72	0.454180	0.119800	0.745390
N21	N2	0.592700	0.248480	0.693430
H571	H57	0.565540	0.214580	0.165340
H581	H58	0.710140	0.292660	0.159190
H591	H59	0.553280	0.243020	0.296470
H601	H60	0.534480	0.321060	0.241660
H611	H61	0.797850	0.315880	0.323760
H621	H62	0.692140	0.379000	0.342470
H631	H63	0.792630	0.389540	0.263490
H641	H64	0.838220	0.227780	0.242960
H651	H65	0.789640	0.177760	0.156290
H661	H66	0.630610	0.135820	0.297320
H671	H67	0.731260	0.081280	0.252390
H681	H68	0.575600	0.088920	0.212750
C731	C73	0.609370	0.288960	0.259250
C741	C74	0.732080	0.347740	0.300260
C751	C75	0.747890	0.195020	0.208090
C761	C76	0.665620	0.119800	0.245390
N31	N3	0.655780	0.248480	0.193430
H691	H69	0.350960	0.785420	0.334660
H701	H70	0.417480	0.707340	0.340810
H711	H71	0.310260	0.756980	0.203530
H721	H72	0.213420	0.678940	0.258340
H731	H73	0.481970	0.684120	0.176240
H741	H74	0.313140	0.621000	0.157530
H751	H75	0.403090	0.610460	0.236510
H761	H76	0.610440	0.772220	0.257040
H771	H77	0.611880	0.822240	0.343710
H781	H78	0.494790	0.864180	0.202680
H791	H79	0.649980	0.918720	0.247610
H801	H80	0.486680	0.911080	0.287250
C771	C77	0.320410	0.711040	0.240750
C781	C78	0.384340	0.652260	0.199740
C791	C79	0.552870	0.804980	0.291910
C801	C80	0.545820	0.880200	0.254610
N41	N4	0.407300	0.751520	0.306570
