data_VEGMOK01_charged_PM
_symmetry_space_group_name_H-M	'P1'
_cell_length_a	9.810500
_cell_length_b	17.372300
_cell_length_c	18.198800
_cell_angle_alpha	92.448100
_cell_angle_beta	90.000000
_cell_angle_gamma	106.401000
_symmetry_Int_Tables_number 1

loop_
_symmetry_equiv_pos_as_xyz
'x,y,z'

loop_
_atom_site_label
_atom_site_type_symbol
_atom_site_fract_x
_atom_site_fract_y
_atom_site_fract_z
Zn11	Zn1	0.147480	0.693140	0.003320
Zn21	Zn2	0.454340	0.306860	0.496680
Zn31	Zn3	0.852520	0.306860	0.996680
Zn41	Zn4	0.545660	0.693140	0.503320
Zn51	Zn5	0.000000	0.500000	0.000000
Zn61	Zn6	0.500000	0.500000	0.500000
H11	H1	0.587400	0.931600	0.086400
H21	H2	0.303100	0.933600	0.928800
H31	H3	0.529200	0.567400	0.891000
H41	H4	0.316700	0.506000	0.078700
H51	H5	0.993600	0.733600	0.224900
H61	H6	0.871600	0.728400	0.334300
H71	H7	0.633600	0.506000	0.275600
H81	H8	0.751300	0.511800	0.165200
H91	H9	0.655800	0.068400	0.413600
H101	H10	0.369500	0.066400	0.571200
H111	H11	0.961800	0.432600	0.609000
H121	H12	0.810700	0.494000	0.421300
H131	H13	0.260000	0.266400	0.275100
H141	H14	0.143200	0.271600	0.165700
H151	H15	0.127600	0.494000	0.224400
H161	H16	0.239500	0.488200	0.334800
H171	H17	0.412600	0.068400	0.913600
H181	H18	0.696900	0.066400	0.071200
H191	H19	0.470800	0.432600	0.109000
H201	H20	0.683300	0.494000	0.921300
H211	H21	0.006400	0.266400	0.775100
H221	H22	0.128400	0.271600	0.665700
H231	H23	0.366400	0.494000	0.724400
H241	H24	0.248700	0.488200	0.834800
H251	H25	0.344200	0.931600	0.586400
H261	H26	0.630500	0.933600	0.428800
H271	H27	0.038200	0.567400	0.391000
H281	H28	0.189300	0.506000	0.578700
H291	H29	0.740000	0.733600	0.724900
H301	H30	0.856800	0.728400	0.834300
H311	H31	0.872400	0.506000	0.775600
H321	H32	0.760500	0.511800	0.665200
C11	C1	0.359970	0.831340	0.021070
C21	C2	0.432990	0.918780	0.009950
C31	C3	0.551810	0.959020	0.051790
C41	C4	0.382020	0.960240	0.957600
C51	C5	0.310580	0.592960	0.962270
C61	C6	0.406850	0.543900	0.981850
C71	C7	0.517590	0.540380	0.934560
C81	C8	0.390070	0.503540	0.047180
C91	C9	0.954300	0.629000	0.109840
C101	C10	0.882180	0.624360	0.183050
C111	C11	0.919900	0.688400	0.234650
C121	C12	0.847890	0.684980	0.300470
C131	C13	0.739590	0.616180	0.315770
C141	C14	0.705020	0.552040	0.265140
C151	C15	0.775330	0.555460	0.198950
C161	C16	0.659230	0.611860	0.386420
C171	C17	0.528630	0.168660	0.478930
C181	C18	0.514210	0.081220	0.490050
C191	C19	0.592790	0.040980	0.448210
C201	C20	0.421780	0.039760	0.542400
C211	C21	0.717620	0.407040	0.537730
C221	C22	0.862950	0.456100	0.518150
C231	C23	0.977210	0.459620	0.565440
C241	C24	0.886530	0.496460	0.452820
C251	C25	0.325300	0.371000	0.390160
C261	C26	0.257820	0.375640	0.316950
C271	C27	0.231500	0.311600	0.265350
C281	C28	0.162910	0.315020	0.199530
C291	C29	0.123410	0.383820	0.184230
C301	C30	0.152980	0.447960	0.234860
C311	C31	0.219870	0.444540	0.301050
C321	C32	0.047370	0.388140	0.113580
C331	C33	0.640030	0.168660	0.978930
C341	C34	0.567010	0.081220	0.990050
C351	C35	0.448190	0.040980	0.948210
C361	C36	0.617980	0.039760	0.042400
C371	C37	0.689420	0.407040	0.037730
C381	C38	0.593150	0.456100	0.018150
C391	C39	0.482410	0.459620	0.065440
C401	C40	0.609930	0.496460	0.952820
C411	C41	0.045700	0.371000	0.890160
C421	C42	0.117820	0.375640	0.816950
C431	C43	0.080100	0.311600	0.765350
C441	C44	0.152110	0.315020	0.699530
C451	C45	0.260410	0.383820	0.684230
C461	C46	0.294980	0.447960	0.734860
C471	C47	0.224670	0.444540	0.801050
C481	C48	0.340770	0.388140	0.613580
C491	C49	0.471370	0.831340	0.521070
C501	C50	0.485790	0.918780	0.509950
C511	C51	0.407210	0.959020	0.551790
C521	C52	0.578220	0.960240	0.457600
C531	C53	0.282380	0.592960	0.462270
C541	C54	0.137050	0.543900	0.481850
C551	C55	0.022790	0.540380	0.434560
C561	C56	0.113470	0.503540	0.547180
C571	C57	0.674700	0.629000	0.609840
C581	C58	0.742180	0.624360	0.683050
C591	C59	0.768500	0.688400	0.734650
C601	C60	0.837090	0.684980	0.800470
C611	C61	0.876590	0.616180	0.815770
C621	C62	0.847020	0.552040	0.765140
C631	C63	0.780130	0.555460	0.698950
C641	C64	0.952630	0.611860	0.886420
O11	O1	0.256610	0.798420	0.975750
O21	O2	0.396600	0.796000	0.071440
O31	O3	0.209280	0.593960	0.007990
O41	O4	0.333510	0.633020	0.906640
O51	O5	0.056220	0.691840	0.099580
O61	O6	0.090620	0.427840	0.936290
O71	O7	0.668980	0.677760	0.421180
O81	O8	0.588700	0.543320	0.404310
O91	O9	0.458190	0.201580	0.524250
O101	O10	0.600600	0.204000	0.428560
O111	O11	0.615320	0.406040	0.492010
O121	O12	0.700490	0.366980	0.593360
O131	O13	0.364380	0.308160	0.400420
O141	O14	0.662780	0.572160	0.563710
O151	O15	0.991220	0.322240	0.078820
O161	O16	0.045380	0.456680	0.095690
O171	O17	0.743390	0.201580	0.024250
O181	O18	0.603400	0.204000	0.928560
O191	O19	0.790720	0.406040	0.992010
O201	O20	0.666490	0.366980	0.093360
O211	O21	0.943780	0.308160	0.900420
O221	O22	0.909380	0.572160	0.063710
O231	O23	0.331020	0.322240	0.578820
O241	O24	0.411300	0.456680	0.595690
O251	O25	0.541810	0.798420	0.475750
O261	O26	0.399400	0.796000	0.571440
O271	O27	0.384680	0.593960	0.507990
O281	O28	0.299510	0.633020	0.406640
O291	O29	0.635620	0.691840	0.599580
O301	O30	0.337220	0.427840	0.436290
O311	O31	0.008780	0.677760	0.921180
O321	O32	0.954620	0.543320	0.904310
H331	H33	0.423900	0.781400	0.830900
H341	H34	0.297700	0.714400	0.837600
H351	H35	0.436100	0.750400	0.707100
H361	H36	0.455100	0.682400	0.756600
H371	H37	0.205100	0.679600	0.680400
H381	H38	0.300400	0.622200	0.663900
H391	H39	0.211800	0.614600	0.736300
H401	H40	0.174500	0.776800	0.761200
H411	H41	0.216500	0.820400	0.838600
H421	H42	0.373700	0.866400	0.709800
H431	H43	0.276000	0.914000	0.746800
H441	H44	0.415000	0.910200	0.787200
C651	C65	0.388020	0.710440	0.741170
C661	C66	0.265290	0.651380	0.701910
C671	C67	0.254190	0.805580	0.792560
C681	C68	0.337410	0.881020	0.755710
N11	N1	0.344740	0.752080	0.807070
H451	H45	0.642500	0.218600	0.669100
H461	H46	0.583300	0.285600	0.662400
H471	H47	0.685700	0.249600	0.792900
H481	H48	0.772700	0.317600	0.743400
H491	H49	0.525500	0.320400	0.819600
H501	H50	0.678200	0.377800	0.836100
H511	H51	0.597200	0.385400	0.763700
H521	H52	0.397700	0.223200	0.738800
H531	H53	0.396100	0.179600	0.661400
H541	H54	0.507300	0.133600	0.790200
H551	H55	0.362000	0.086000	0.753200
H561	H56	0.504800	0.089800	0.712800
C691	C69	0.677580	0.289560	0.758830
C701	C70	0.613910	0.348620	0.798090
C711	C71	0.448610	0.194420	0.707440
C721	C72	0.456390	0.118980	0.744290
N21	N2	0.592660	0.247920	0.692930
H571	H57	0.576100	0.218600	0.169100
H581	H58	0.702300	0.285600	0.162400
H591	H59	0.563900	0.249600	0.292900
H601	H60	0.544900	0.317600	0.243400
H611	H61	0.794900	0.320400	0.319600
H621	H62	0.699600	0.377800	0.336100
H631	H63	0.788200	0.385400	0.263700
H641	H64	0.825500	0.223200	0.238800
H651	H65	0.783500	0.179600	0.161400
H661	H66	0.626300	0.133600	0.290200
H671	H67	0.724000	0.086000	0.253200
H681	H68	0.585000	0.089800	0.212800
C731	C73	0.611980	0.289560	0.258830
C741	C74	0.734710	0.348620	0.298090
C751	C75	0.745810	0.194420	0.207440
C761	C76	0.662590	0.118980	0.244290
N31	N3	0.655260	0.247920	0.192930
H691	H69	0.357500	0.781400	0.330900
H701	H70	0.416700	0.714400	0.337600
H711	H71	0.314300	0.750400	0.207100
H721	H72	0.227300	0.682400	0.256600
H731	H73	0.474500	0.679600	0.180400
H741	H74	0.321800	0.622200	0.163900
H751	H75	0.402800	0.614600	0.236300
H761	H76	0.602300	0.776800	0.261200
H771	H77	0.603900	0.820400	0.338600
H781	H78	0.492700	0.866400	0.209800
H791	H79	0.638000	0.914000	0.246800
H801	H80	0.495200	0.910200	0.287200
C771	C77	0.322420	0.710440	0.241170
C781	C78	0.386090	0.651380	0.201910
C791	C79	0.551390	0.805580	0.292560
C801	C80	0.543610	0.881020	0.255710
N41	N4	0.407340	0.752080	0.307070
