data_VEGMIE_charged_PM
_symmetry_space_group_name_H-M	'P1'
_cell_length_a	9.834000
_cell_length_b	17.366100
_cell_length_c	18.296000
_cell_angle_alpha	92.253800
_cell_angle_beta	90.000000
_cell_angle_gamma	106.448000
_symmetry_Int_Tables_number 1

loop_
_symmetry_equiv_pos_as_xyz
'x,y,z'

loop_
_atom_site_label
_atom_site_type_symbol
_atom_site_fract_x
_atom_site_fract_y
_atom_site_fract_z
Co11	Co1	0.145210	0.692340	0.001730
Co21	Co2	0.452870	0.307660	0.498270
Co31	Co3	0.854790	0.307660	0.998270
Co41	Co4	0.547130	0.692340	0.501730
Co51	Co5	0.000000	0.500000	0.000000
Co61	Co6	0.500000	0.500000	0.500000
H11	H1	0.583800	0.930400	0.086800
H21	H2	0.303400	0.935800	0.928500
H31	H3	0.527400	0.566800	0.890900
H41	H4	0.316200	0.505200	0.078700
H51	H5	0.992900	0.734600	0.223700
H61	H6	0.871400	0.728600	0.333100
H71	H7	0.635000	0.504400	0.275200
H81	H8	0.752600	0.512200	0.164300
H91	H9	0.653400	0.069600	0.413200
H101	H10	0.367600	0.064200	0.571500
H111	H11	0.960600	0.433200	0.609100
H121	H12	0.811000	0.494800	0.421300
H131	H13	0.258300	0.265400	0.276300
H141	H14	0.142800	0.271400	0.166900
H151	H15	0.130600	0.495600	0.224800
H161	H16	0.240400	0.487800	0.335700
H171	H17	0.416200	0.069600	0.913200
H181	H18	0.696600	0.064200	0.071500
H191	H19	0.472600	0.433200	0.109100
H201	H20	0.683800	0.494800	0.921300
H211	H21	0.007100	0.265400	0.776300
H221	H22	0.128600	0.271400	0.666900
H231	H23	0.365000	0.495600	0.724800
H241	H24	0.247400	0.487800	0.835700
H251	H25	0.346600	0.930400	0.586800
H261	H26	0.632400	0.935800	0.428500
H271	H27	0.039400	0.566800	0.390900
H281	H28	0.189000	0.505200	0.578700
H291	H29	0.741700	0.734600	0.723700
H301	H30	0.857200	0.728600	0.833100
H311	H31	0.869400	0.504400	0.775200
H321	H32	0.759600	0.512200	0.664300
C11	C1	0.357400	0.831200	0.020090
C21	C2	0.431240	0.918080	0.009160
C31	C3	0.549940	0.958080	0.051930
C41	C4	0.382460	0.961520	0.957260
C51	C5	0.309110	0.592420	0.962920
C61	C6	0.406220	0.543640	0.981940
C71	C7	0.516640	0.540080	0.934560
C81	C8	0.389690	0.503180	0.047320
C91	C9	0.955170	0.629740	0.109640
C101	C10	0.882360	0.624520	0.182280
C111	C11	0.919730	0.689060	0.233580
C121	C12	0.847770	0.685340	0.299440
C131	C13	0.739810	0.616220	0.314680
C141	C14	0.705220	0.550840	0.264450
C151	C15	0.776330	0.555460	0.198050
C161	C16	0.660130	0.611860	0.384930
C171	C17	0.526200	0.168800	0.479910
C181	C18	0.513160	0.081920	0.490840
C191	C19	0.591860	0.041920	0.448070
C201	C20	0.420940	0.038480	0.542740
C211	C21	0.716690	0.407580	0.537080
C221	C22	0.862580	0.456360	0.518060
C231	C23	0.976560	0.459920	0.565440
C241	C24	0.886510	0.496820	0.452680
C251	C25	0.325430	0.370260	0.390360
C261	C26	0.257840	0.375480	0.317720
C271	C27	0.230670	0.310940	0.266420
C281	C28	0.162430	0.314660	0.200560
C291	C29	0.123590	0.383780	0.185320
C301	C30	0.154380	0.449160	0.235550
C311	C31	0.220870	0.444540	0.301950
C321	C32	0.048270	0.388140	0.115070
C331	C33	0.642600	0.168800	0.979910
C341	C34	0.568760	0.081920	0.990840
C351	C35	0.450060	0.041920	0.948070
C361	C36	0.617540	0.038480	0.042740
C371	C37	0.690890	0.407580	0.037080
C381	C38	0.593780	0.456360	0.018060
C391	C39	0.483360	0.459920	0.065440
C401	C40	0.610310	0.496820	0.952680
C411	C41	0.044830	0.370260	0.890360
C421	C42	0.117640	0.375480	0.817720
C431	C43	0.080270	0.310940	0.766420
C441	C44	0.152230	0.314660	0.700560
C451	C45	0.260190	0.383780	0.685320
C461	C46	0.294780	0.449160	0.735550
C471	C47	0.223670	0.444540	0.801950
C481	C48	0.339870	0.388140	0.615070
C491	C49	0.473800	0.831200	0.520090
C501	C50	0.486840	0.918080	0.509160
C511	C51	0.408140	0.958080	0.551930
C521	C52	0.579060	0.961520	0.457260
C531	C53	0.283310	0.592420	0.462920
C541	C54	0.137420	0.543640	0.481940
C551	C55	0.023440	0.540080	0.434560
C561	C56	0.113490	0.503180	0.547320
C571	C57	0.674570	0.629740	0.609640
C581	C58	0.742160	0.624520	0.682280
C591	C59	0.769330	0.689060	0.733580
C601	C60	0.837570	0.685340	0.799440
C611	C61	0.876410	0.616220	0.814680
C621	C62	0.845620	0.550840	0.764450
C631	C63	0.779130	0.555460	0.698050
C641	C64	0.951730	0.611860	0.884930
O11	O1	0.254620	0.798640	0.974490
O21	O2	0.392430	0.794660	0.070060
O31	O3	0.207670	0.592940	0.008950
O41	O4	0.329230	0.632660	0.907170
O51	O5	0.055340	0.693280	0.098570
O61	O6	0.910680	0.572760	0.063070
O71	O7	0.668540	0.678280	0.418890
O81	O8	0.590080	0.543160	0.403940
O91	O9	0.455980	0.201360	0.525510
O101	O10	0.597770	0.205340	0.429940
O111	O11	0.614730	0.407060	0.491050
O121	O12	0.696570	0.367340	0.592830
O131	O13	0.362060	0.306720	0.401430
O141	O14	0.337920	0.427240	0.436930
O151	O15	0.990260	0.321720	0.081110
O161	O16	0.046920	0.456840	0.096060
O171	O17	0.745380	0.201360	0.025510
O181	O18	0.607570	0.205340	0.929940
O191	O19	0.792330	0.407060	0.991050
O201	O20	0.670770	0.367340	0.092830
O211	O21	0.944660	0.306720	0.901430
O221	O22	0.089320	0.427240	0.936930
O231	O23	0.331460	0.321720	0.581110
O241	O24	0.409920	0.456840	0.596060
O251	O25	0.544020	0.798640	0.474490
O261	O26	0.402230	0.794660	0.570060
O271	O27	0.385270	0.592940	0.508950
O281	O28	0.303430	0.632660	0.407170
O291	O29	0.637940	0.693280	0.598570
O301	O30	0.662080	0.572760	0.563070
O311	O31	0.009740	0.678280	0.918890
O321	O32	0.953080	0.543160	0.903940
H331	H33	0.423000	0.781600	0.830600
H341	H34	0.297000	0.714600	0.837300
H351	H35	0.454100	0.682400	0.756600
H361	H36	0.436300	0.750800	0.707400
H371	H37	0.208900	0.680800	0.678300
H381	H38	0.301200	0.621200	0.665800
H391	H39	0.209200	0.616800	0.736300
H401	H40	0.173800	0.777400	0.761000
H411	H41	0.216300	0.821400	0.837800
H421	H42	0.370100	0.865800	0.708300
H431	H43	0.279400	0.915800	0.747700
H441	H44	0.418500	0.908400	0.784900
C651	C65	0.387600	0.710600	0.741100
C661	C66	0.265850	0.652100	0.701900
C671	C67	0.253430	0.806060	0.792100
C681	C68	0.338160	0.880920	0.754800
N11	N1	0.344030	0.752260	0.806900
H451	H45	0.641400	0.218400	0.669400
H461	H46	0.582400	0.285400	0.662700
H471	H47	0.771700	0.317600	0.743400
H481	H48	0.685500	0.249200	0.792600
H491	H49	0.528100	0.319200	0.821700
H501	H50	0.680000	0.378800	0.834200
H511	H51	0.592400	0.383200	0.763700
H521	H52	0.396400	0.222600	0.739000
H531	H53	0.394900	0.178600	0.662200
H541	H54	0.504300	0.134200	0.791700
H551	H55	0.363600	0.084200	0.752300
H561	H56	0.510100	0.091600	0.715100
C691	C69	0.677000	0.289400	0.758900
C701	C70	0.613750	0.347900	0.798100
C711	C71	0.447370	0.193940	0.707900
C721	C72	0.457240	0.119080	0.745200
N21	N2	0.591770	0.247740	0.693100
H571	H57	0.577000	0.218400	0.169400
H581	H58	0.703000	0.285400	0.162700
H591	H59	0.545900	0.317600	0.243400
H601	H60	0.563700	0.249200	0.292600
H611	H61	0.791100	0.319200	0.321700
H621	H62	0.698800	0.378800	0.334200
H631	H63	0.790800	0.383200	0.263700
H641	H64	0.826200	0.222600	0.239000
H651	H65	0.783700	0.178600	0.162200
H661	H66	0.629900	0.134200	0.291700
H671	H67	0.720600	0.084200	0.252300
H681	H68	0.581500	0.091600	0.215100
C731	C73	0.612400	0.289400	0.258900
C741	C74	0.734150	0.347900	0.298100
C751	C75	0.746570	0.193940	0.207900
C761	C76	0.661840	0.119080	0.245200
N31	N3	0.655970	0.247740	0.193100
H691	H69	0.358600	0.781600	0.330600
H701	H70	0.417600	0.714600	0.337300
H711	H71	0.228300	0.682400	0.256600
H721	H72	0.314500	0.750800	0.207400
H731	H73	0.471900	0.680800	0.178300
H741	H74	0.320000	0.621200	0.165800
H751	H75	0.407600	0.616800	0.236300
H761	H76	0.603600	0.777400	0.261000
H771	H77	0.605100	0.821400	0.337800
H781	H78	0.495700	0.865800	0.208300
H791	H79	0.636400	0.915800	0.247700
H801	H80	0.489900	0.908400	0.284900
C771	C77	0.323000	0.710600	0.241100
C781	C78	0.386250	0.652100	0.201900
C791	C79	0.552630	0.806060	0.292100
C801	C80	0.542760	0.880920	0.254800
N41	N4	0.408230	0.752260	0.306900
