data_VEHJID01_clean_PM
_symmetry_space_group_name_H-M	'P1'
_cell_length_a	12.959500
_cell_length_b	14.734100
_cell_length_c	15.357100
_cell_angle_alpha	90.000000
_cell_angle_beta	90.000000
_cell_angle_gamma	90.000000
_symmetry_Int_Tables_number 1

loop_
_symmetry_equiv_pos_as_xyz
'x,y,z'

loop_
_atom_site_label
_atom_site_type_symbol
_atom_site_fract_x
_atom_site_fract_y
_atom_site_fract_z
Zn11	Zn1	0.298140	0.171440	0.165450
Zn21	Zn2	0.798140	0.328560	0.834550
Zn31	Zn3	0.701860	0.671440	0.334550
Zn41	Zn4	0.482120	0.027530	0.047000
Zn51	Zn5	0.517880	0.527530	0.453000
Zn61	Zn6	0.982120	0.472470	0.953000
Zn71	Zn7	0.201860	0.828560	0.665450
Zn81	Zn8	0.017880	0.972470	0.547000
H11	H1	0.462300	0.818500	0.238500
H21	H2	0.185400	0.246200	0.961000
H31	H3	0.314600	0.753800	0.461000
H41	H4	0.737700	0.520700	0.673900
H51	H5	0.962300	0.681500	0.761500
H61	H6	0.685400	0.253800	0.039000
H71	H7	0.237700	0.979300	0.326100
H81	H8	0.037700	0.181500	0.738500
H91	H9	0.262300	0.020700	0.826100
H101	H10	0.762300	0.479300	0.173900
H111	H11	0.814600	0.746200	0.539000
H121	H12	0.537700	0.318500	0.261500
C11	C1	0.134200	0.030400	0.694500
C21	C2	0.397800	0.772300	0.352100
C31	C3	0.676100	0.292400	0.086300
C41	C4	0.035100	0.309800	0.861700
C51	C5	0.277600	0.927300	0.332600
C61	C6	0.897800	0.727700	0.647900
C71	C7	0.817500	0.391400	0.027300
C81	C8	0.535100	0.190200	0.138300
C91	C9	0.411900	0.830900	0.279900
C101	C10	0.317500	0.108600	0.972700
C111	C11	0.865800	0.530400	0.805500
C121	C12	0.634200	0.469600	0.305500
C131	C13	0.088100	0.169100	0.779900
C141	C14	0.102200	0.227700	0.852100
C151	C15	0.588100	0.330900	0.220100
C161	C16	0.464900	0.690200	0.361700
C171	C17	0.238000	0.129100	0.905700
C181	C18	0.762000	0.629100	0.594300
C191	C19	0.650000	0.406800	0.228500
C201	C20	0.602200	0.272300	0.147900
C211	C21	0.777600	0.572700	0.667400
C221	C22	0.222400	0.072700	0.832600
C231	C23	0.150000	0.093200	0.771500
C241	C24	0.738000	0.370900	0.094300
C251	C25	0.262000	0.870900	0.405700
C261	C26	0.911900	0.669100	0.720100
C271	C27	0.176100	0.207600	0.913700
C281	C28	0.682500	0.608600	0.527300
C291	C29	0.182500	0.891400	0.472700
C301	C30	0.823900	0.707600	0.586300
C311	C31	0.350000	0.906800	0.271500
C321	C32	0.850000	0.593200	0.728500
C331	C33	0.722400	0.427300	0.167400
C341	C34	0.365800	0.969600	0.194500
C351	C35	0.964900	0.809800	0.638300
C361	C36	0.323900	0.792400	0.413700
O11	O1	0.331600	0.164200	0.032300
O21	O2	0.561600	0.133500	0.080200
O31	O3	0.630100	0.536500	0.538000
O41	O4	0.061600	0.366500	0.919800
O51	O5	0.195700	0.968400	0.684100
O61	O6	0.168400	0.835800	0.532300
O71	O7	0.304300	0.031600	0.184100
O81	O8	0.457900	0.182300	0.187500
O91	O9	0.804300	0.468400	0.815900
O101	O10	0.057500	0.046000	0.646400
O111	O11	0.957900	0.317700	0.812500
O121	O12	0.369900	0.036500	0.962000
O131	O13	0.442500	0.954000	0.146400
O141	O14	0.668400	0.664200	0.467700
O151	O15	0.130100	0.963500	0.462000
O161	O16	0.557500	0.454000	0.353600
O171	O17	0.542100	0.682300	0.312500
O181	O18	0.831600	0.335800	0.967700
O191	O19	0.438400	0.633500	0.419800
O201	O20	0.042100	0.817700	0.687500
O211	O21	0.938400	0.866500	0.580200
O221	O22	0.695700	0.531600	0.315900
O231	O23	0.942500	0.546000	0.853600
O241	O24	0.869900	0.463500	0.038000
