data_VEHJUP_clean_PM
_symmetry_space_group_name_H-M	'P1'
_cell_length_a	20.615500
_cell_length_b	20.615500
_cell_length_c	20.615500
_cell_angle_alpha	90.000000
_cell_angle_beta	90.000000
_cell_angle_gamma	90.000000
_symmetry_Int_Tables_number 1

loop_
_symmetry_equiv_pos_as_xyz
'x,y,z'

loop_
_atom_site_label
_atom_site_type_symbol
_atom_site_fract_x
_atom_site_fract_y
_atom_site_fract_z
Zn11	Zn1	0.000000	0.572240	0.000000
Zn21	Zn2	0.000000	0.427760	0.000000
Zn31	Zn3	0.000000	0.000000	0.572240
Zn41	Zn4	0.000000	0.000000	0.427760
Zn51	Zn5	0.572240	0.000000	0.000000
Zn61	Zn6	0.427760	0.000000	0.000000
Zn71	Zn7	0.761120	0.761120	0.761120
Zn81	Zn8	0.664510	0.664510	0.664510
Zn91	Zn9	0.238880	0.238880	0.761120
Zn101	Zn10	0.335490	0.335490	0.664510
Zn111	Zn11	0.238880	0.761120	0.238880
Zn121	Zn12	0.335490	0.664510	0.335490
Zn131	Zn13	0.761120	0.238880	0.238880
Zn141	Zn14	0.664510	0.335490	0.335490
Zn151	Zn15	0.761120	0.761120	0.238880
Zn161	Zn16	0.664510	0.664510	0.335490
Zn171	Zn17	0.238880	0.238880	0.238880
Zn181	Zn18	0.335490	0.335490	0.335490
Zn191	Zn19	0.761120	0.238880	0.761120
Zn201	Zn20	0.664510	0.335490	0.664510
Zn211	Zn21	0.238880	0.761120	0.761120
Zn221	Zn22	0.335490	0.664510	0.664510
H11	H1	0.851900	0.597800	0.851900
H21	H2	0.148100	0.402200	0.851900
H31	H3	0.148100	0.597800	0.148100
H41	H4	0.851900	0.402200	0.148100
H51	H5	0.851900	0.851900	0.597800
H61	H6	0.851900	0.148100	0.402200
H71	H7	0.148100	0.148100	0.597800
H81	H8	0.148100	0.851900	0.402200
H91	H9	0.597800	0.851900	0.851900
H101	H10	0.402200	0.851900	0.148100
H111	H11	0.597800	0.148100	0.148100
H121	H12	0.402200	0.148100	0.851900
H131	H13	0.597800	0.851900	0.148100
H141	H14	0.402200	0.148100	0.148100
H151	H15	0.597800	0.148100	0.851900
H161	H16	0.402200	0.851900	0.851900
H171	H17	0.851900	0.851900	0.402200
H181	H18	0.148100	0.851900	0.597800
H191	H19	0.148100	0.148100	0.402200
H201	H20	0.851900	0.148100	0.597800
H211	H21	0.851900	0.597800	0.148100
H221	H22	0.851900	0.402200	0.851900
H231	H23	0.148100	0.597800	0.851900
H241	H24	0.148100	0.402200	0.148100
H251	H25	0.734200	0.500000	0.734200
H261	H26	0.265800	0.500000	0.734200
H271	H27	0.265800	0.500000	0.265800
H281	H28	0.734200	0.500000	0.265800
H291	H29	0.734200	0.734200	0.500000
H301	H30	0.734200	0.265800	0.500000
H311	H31	0.265800	0.265800	0.500000
H321	H32	0.265800	0.734200	0.500000
H331	H33	0.500000	0.734200	0.734200
H341	H34	0.500000	0.734200	0.265800
H351	H35	0.500000	0.265800	0.265800
H361	H36	0.500000	0.265800	0.734200
C11	C1	0.836200	0.558500	0.836200
C21	C2	0.789700	0.557300	0.789700
C31	C3	0.760600	0.619900	0.760600
C41	C4	0.163800	0.441500	0.836200
C51	C5	0.210300	0.442700	0.789700
C61	C6	0.239400	0.380100	0.760600
C71	C7	0.163800	0.558500	0.163800
C81	C8	0.210300	0.557300	0.210300
C91	C9	0.239400	0.619900	0.239400
C101	C10	0.836200	0.441500	0.163800
C111	C11	0.789700	0.442700	0.210300
C121	C12	0.760600	0.380100	0.239400
C131	C13	0.836200	0.836200	0.558500
C141	C14	0.789700	0.789700	0.557300
C151	C15	0.760600	0.760600	0.619900
C161	C16	0.836200	0.163800	0.441500
C171	C17	0.789700	0.210300	0.442700
C181	C18	0.760600	0.239400	0.380100
C191	C19	0.163800	0.163800	0.558500
C201	C20	0.210300	0.210300	0.557300
C211	C21	0.239400	0.239400	0.619900
C221	C22	0.163800	0.836200	0.441500
C231	C23	0.210300	0.789700	0.442700
C241	C24	0.239400	0.760600	0.380100
C251	C25	0.558500	0.836200	0.836200
C261	C26	0.557300	0.789700	0.789700
C271	C27	0.619900	0.760600	0.760600
C281	C28	0.441500	0.836200	0.163800
C291	C29	0.442700	0.789700	0.210300
C301	C30	0.380100	0.760600	0.239400
C311	C31	0.558500	0.163800	0.163800
C321	C32	0.557300	0.210300	0.210300
C331	C33	0.619900	0.239400	0.239400
C341	C34	0.441500	0.163800	0.836200
C351	C35	0.442700	0.210300	0.789700
C361	C36	0.380100	0.239400	0.760600
C371	C37	0.558500	0.836200	0.163800
C381	C38	0.557300	0.789700	0.210300
C391	C39	0.619900	0.760600	0.239400
C401	C40	0.441500	0.163800	0.163800
C411	C41	0.442700	0.210300	0.210300
C421	C42	0.380100	0.239400	0.239400
C431	C43	0.558500	0.163800	0.836200
C441	C44	0.557300	0.210300	0.789700
C451	C45	0.619900	0.239400	0.760600
C461	C46	0.441500	0.836200	0.836200
C471	C47	0.442700	0.789700	0.789700
C481	C48	0.380100	0.760600	0.760600
C491	C49	0.836200	0.836200	0.441500
C501	C50	0.789700	0.789700	0.442700
C511	C51	0.760600	0.760600	0.380100
C521	C52	0.163800	0.836200	0.558500
C531	C53	0.210300	0.789700	0.557300
C541	C54	0.239400	0.760600	0.619900
C551	C55	0.163800	0.163800	0.441500
C561	C56	0.210300	0.210300	0.442700
C571	C57	0.239400	0.239400	0.380100
C581	C58	0.836200	0.163800	0.558500
C591	C59	0.789700	0.210300	0.557300
C601	C60	0.760600	0.239400	0.619900
C611	C61	0.836200	0.558500	0.163800
C621	C62	0.789700	0.557300	0.210300
C631	C63	0.760600	0.619900	0.239400
C641	C64	0.836200	0.441500	0.836200
C651	C65	0.789700	0.442700	0.789700
C661	C66	0.760600	0.380100	0.760600
C671	C67	0.163800	0.558500	0.836200
C681	C68	0.210300	0.557300	0.789700
C691	C69	0.239400	0.619900	0.760600
C701	C70	0.163800	0.441500	0.163800
C711	C71	0.210300	0.442700	0.210300
C721	C72	0.239400	0.380100	0.239400
C731	C73	0.910600	0.500000	0.910600
C741	C74	0.860000	0.500000	0.860000
C751	C75	0.766100	0.500000	0.766100
C761	C76	0.089400	0.500000	0.910600
C771	C77	0.140000	0.500000	0.860000
C781	C78	0.233900	0.500000	0.766100
C791	C79	0.089400	0.500000	0.089400
C801	C80	0.140000	0.500000	0.140000
C811	C81	0.233900	0.500000	0.233900
C821	C82	0.910600	0.500000	0.089400
C831	C83	0.860000	0.500000	0.140000
C841	C84	0.766100	0.500000	0.233900
C851	C85	0.910600	0.910600	0.500000
C861	C86	0.860000	0.860000	0.500000
C871	C87	0.766100	0.766100	0.500000
C881	C88	0.910600	0.089400	0.500000
C891	C89	0.860000	0.140000	0.500000
C901	C90	0.766100	0.233900	0.500000
C911	C91	0.089400	0.089400	0.500000
C921	C92	0.140000	0.140000	0.500000
C931	C93	0.233900	0.233900	0.500000
C941	C94	0.089400	0.910600	0.500000
C951	C95	0.140000	0.860000	0.500000
C961	C96	0.233900	0.766100	0.500000
C971	C97	0.500000	0.910600	0.910600
C981	C98	0.500000	0.860000	0.860000
C991	C99	0.500000	0.766100	0.766100
C1001	C100	0.500000	0.910600	0.089400
C1011	C101	0.500000	0.860000	0.140000
C1021	C102	0.500000	0.766100	0.233900
C1031	C103	0.500000	0.089400	0.089400
C1041	C104	0.500000	0.140000	0.140000
C1051	C105	0.500000	0.233900	0.233900
C1061	C106	0.500000	0.089400	0.910600
C1071	C107	0.500000	0.140000	0.860000
C1081	C108	0.500000	0.233900	0.766100
O11	O1	0.931100	0.554200	0.931100
O21	O2	0.784300	0.672100	0.784300
O31	O3	0.716800	0.613200	0.716800
O41	O4	0.068900	0.445800	0.931100
O51	O5	0.215700	0.327900	0.784300
O61	O6	0.283200	0.386800	0.716800
O71	O7	0.068900	0.554200	0.068900
O81	O8	0.215700	0.672100	0.215700
O91	O9	0.283200	0.613200	0.283200
O101	O10	0.931100	0.445800	0.068900
O111	O11	0.784300	0.327900	0.215700
O121	O12	0.716800	0.386800	0.283200
O131	O13	0.931100	0.931100	0.554200
O141	O14	0.784300	0.784300	0.672100
O151	O15	0.716800	0.716800	0.613200
O161	O16	0.931100	0.068900	0.445800
O171	O17	0.784300	0.215700	0.327900
O181	O18	0.716800	0.283200	0.386800
O191	O19	0.068900	0.068900	0.554200
O201	O20	0.215700	0.215700	0.672100
O211	O21	0.283200	0.283200	0.613200
O221	O22	0.068900	0.931100	0.445800
O231	O23	0.215700	0.784300	0.327900
O241	O24	0.283200	0.716800	0.386800
O251	O25	0.554200	0.931100	0.931100
O261	O26	0.672100	0.784300	0.784300
O271	O27	0.613200	0.716800	0.716800
O281	O28	0.445800	0.931100	0.068900
O291	O29	0.327900	0.784300	0.215700
O301	O30	0.386800	0.716800	0.283200
O311	O31	0.554200	0.068900	0.068900
O321	O32	0.672100	0.215700	0.215700
O331	O33	0.613200	0.283200	0.283200
O341	O34	0.445800	0.068900	0.931100
O351	O35	0.327900	0.215700	0.784300
O361	O36	0.386800	0.283200	0.716800
O371	O37	0.554200	0.931100	0.068900
O381	O38	0.672100	0.784300	0.215700
O391	O39	0.613200	0.716800	0.283200
O401	O40	0.445800	0.068900	0.068900
O411	O41	0.327900	0.215700	0.215700
O421	O42	0.386800	0.283200	0.283200
O431	O43	0.554200	0.068900	0.931100
O441	O44	0.672100	0.215700	0.784300
O451	O45	0.613200	0.283200	0.716800
O461	O46	0.445800	0.931100	0.931100
O471	O47	0.327900	0.784300	0.784300
O481	O48	0.386800	0.716800	0.716800
O491	O49	0.931100	0.931100	0.445800
O501	O50	0.784300	0.784300	0.327900
O511	O51	0.716800	0.716800	0.386800
O521	O52	0.068900	0.931100	0.554200
O531	O53	0.215700	0.784300	0.672100
O541	O54	0.283200	0.716800	0.613200
O551	O55	0.068900	0.068900	0.445800
O561	O56	0.215700	0.215700	0.327900
O571	O57	0.283200	0.283200	0.386800
O581	O58	0.931100	0.068900	0.554200
O591	O59	0.784300	0.215700	0.672100
O601	O60	0.716800	0.283200	0.613200
O611	O61	0.931100	0.554200	0.068900
O621	O62	0.784300	0.672100	0.215700
O631	O63	0.716800	0.613200	0.283200
O641	O64	0.931100	0.445800	0.931100
O651	O65	0.784300	0.327900	0.784300
O661	O66	0.716800	0.386800	0.716800
O671	O67	0.068900	0.554200	0.931100
O681	O68	0.215700	0.672100	0.784300
O691	O69	0.283200	0.613200	0.716800
O701	O70	0.068900	0.445800	0.068900
O711	O71	0.215700	0.327900	0.215700
O721	O72	0.283200	0.386800	0.283200
