data_VEHKAW_charged_PM
_symmetry_space_group_name_H-M	'P1'
_cell_length_a	9.320000
_cell_length_b	12.608000
_cell_length_c	16.107000
_cell_angle_alpha	90.000000
_cell_angle_beta	90.000000
_cell_angle_gamma	100.942000
_symmetry_Int_Tables_number 1

loop_
_symmetry_equiv_pos_as_xyz
'x,y,z'

loop_
_atom_site_label
_atom_site_type_symbol
_atom_site_fract_x
_atom_site_fract_y
_atom_site_fract_z
Zn11	Zn1	0.367290	0.023260	0.912580
Zn21	Zn2	0.132710	0.476740	0.412580
Zn31	Zn3	0.632710	0.976740	0.087420
Zn41	Zn4	0.867290	0.523260	0.587420
H11	H1	0.958000	0.090600	0.917900
H21	H2	0.084500	0.295800	0.730900
H31	H3	0.667600	0.240300	0.806800
H41	H4	0.542000	0.409400	0.417900
H51	H5	0.415500	0.204200	0.230900
H61	H6	0.832400	0.259700	0.306800
H71	H7	0.042000	0.909400	0.082100
H81	H8	0.915500	0.704200	0.269100
H91	H9	0.332400	0.759700	0.193200
H101	H10	0.458000	0.590600	0.582100
H111	H11	0.584500	0.795800	0.769100
H121	H12	0.167600	0.740300	0.693200
C11	C1	0.793900	0.158000	0.872400
C21	C2	0.935700	0.138100	0.877800
C31	C3	0.044000	0.188200	0.824000
C41	C4	0.011300	0.260200	0.765700
C51	C5	0.869800	0.280100	0.758500
C61	C6	0.762500	0.228000	0.811800
C71	C7	0.679100	0.103000	0.932000
C81	C8	0.196600	0.162300	0.830500
C91	C9	0.832700	0.356900	0.693800
C101	C10	0.706100	0.342000	0.372400
C111	C11	0.564300	0.361900	0.377800
C121	C12	0.456000	0.311800	0.324000
C131	C13	0.488700	0.239800	0.265700
C141	C14	0.630200	0.219900	0.258500
C151	C15	0.737500	0.272000	0.311800
C161	C16	0.820900	0.397000	0.432000
C171	C17	0.303400	0.337700	0.330500
C181	C18	0.667300	0.143100	0.193800
C191	C19	0.206100	0.842000	0.127600
C201	C20	0.064300	0.861900	0.122200
C211	C21	0.956000	0.811800	0.176000
C221	C22	0.988700	0.739800	0.234300
C231	C23	0.130200	0.719900	0.241500
C241	C24	0.237500	0.772000	0.188200
C251	C25	0.320900	0.897000	0.068000
C261	C26	0.803400	0.837700	0.169500
C271	C27	0.167300	0.643100	0.306200
C281	C28	0.293900	0.658000	0.627600
C291	C29	0.435700	0.638100	0.622200
C301	C30	0.544000	0.688200	0.676000
C311	C31	0.511300	0.760200	0.734300
C321	C32	0.369800	0.780100	0.741500
C331	C33	0.262500	0.728000	0.688200
C341	C34	0.179100	0.603000	0.568000
C351	C35	0.696600	0.662300	0.669500
C361	C36	0.332700	0.856900	0.806200
O11	O1	0.553700	0.125000	0.925700
O21	O2	0.716500	0.039100	0.982900
O31	O3	0.214100	0.102000	0.891200
O41	O4	0.290200	0.198400	0.780000
O51	O5	0.936700	0.424500	0.664000
O61	O6	0.703000	0.351600	0.673300
O71	O7	0.946300	0.375000	0.425700
O81	O8	0.783500	0.460900	0.482900
O91	O9	0.285900	0.398000	0.391200
O101	O10	0.209800	0.301600	0.280000
O111	O11	0.563300	0.075500	0.164000
O121	O12	0.797000	0.148400	0.173300
O131	O13	0.446300	0.875000	0.074300
O141	O14	0.283500	0.960900	0.017100
O151	O15	0.785900	0.898000	0.108800
O161	O16	0.709800	0.801600	0.220000
O171	O17	0.063300	0.575500	0.336000
O181	O18	0.297000	0.648400	0.326700
O191	O19	0.053700	0.625000	0.574300
O201	O20	0.216500	0.539100	0.517100
O211	O21	0.714100	0.602000	0.608800
O221	O22	0.790200	0.698400	0.720000
O231	O23	0.436700	0.924500	0.836000
O241	O24	0.203000	0.851600	0.826700
H131	H13	0.060000	0.714900	0.953000
H141	H14	0.990800	0.614100	0.899700
H151	H15	0.901500	0.652500	0.972600
H161	H16	0.806500	0.824300	0.952800
H171	H17	0.823800	0.874800	0.863500
H181	H18	0.957500	0.891600	0.924300
H191	H19	0.834600	0.703100	0.850400
H201	H20	0.980500	0.762600	0.834200
C371	C37	0.971000	0.675900	0.929200
C381	C38	0.871800	0.842000	0.906600
N11	N1	0.914000	0.743000	0.874500
H211	H21	0.440000	0.785100	0.453000
H221	H22	0.509200	0.885900	0.399700
H231	H23	0.598500	0.847500	0.472600
H241	H24	0.693500	0.675700	0.452800
H251	H25	0.676200	0.625200	0.363500
H261	H26	0.542500	0.608400	0.424300
H271	H27	0.665400	0.796900	0.350400
H281	H28	0.519500	0.737400	0.334200
C391	C39	0.529000	0.824100	0.429200
C401	C40	0.628200	0.658000	0.406600
N21	N2	0.586000	0.757000	0.374500
H291	H29	0.940000	0.285100	0.047000
H301	H30	0.009200	0.385900	0.100300
H311	H31	0.098500	0.347500	0.027400
H321	H32	0.193500	0.175700	0.047200
H331	H33	0.176200	0.125200	0.136500
H341	H34	0.042500	0.108400	0.075700
H351	H35	0.165400	0.296900	0.149600
H361	H36	0.019500	0.237400	0.165800
C411	C41	0.029000	0.324100	0.070800
C421	C42	0.128200	0.158000	0.093400
N31	N3	0.086000	0.257000	0.125500
H371	H37	0.560000	0.214900	0.547000
H381	H38	0.490800	0.114100	0.600300
H391	H39	0.401500	0.152500	0.527400
H401	H40	0.306500	0.324300	0.547200
H411	H41	0.323800	0.374800	0.636500
H421	H42	0.457500	0.391600	0.575700
H431	H43	0.334600	0.203100	0.649600
H441	H44	0.480500	0.262600	0.665800
C431	C43	0.471000	0.175900	0.570800
C441	C44	0.371800	0.342000	0.593400
N41	N4	0.414000	0.243000	0.625500
