data_VEHLEA02_clean_PM
_symmetry_space_group_name_H-M	'P1'
_cell_length_a	25.803300
_cell_length_b	8.674200
_cell_length_c	8.455700
_cell_angle_alpha	90.000000
_cell_angle_beta	90.000000
_cell_angle_gamma	90.000000
_symmetry_Int_Tables_number 1

loop_
_symmetry_equiv_pos_as_xyz
'x,y,z'

loop_
_atom_site_label
_atom_site_type_symbol
_atom_site_fract_x
_atom_site_fract_y
_atom_site_fract_z
Zn11	Zn1	0.687450	0.725020	0.380220
P11	P1	0.766720	0.941680	0.180560
H11	H1	0.751000	0.007000	0.072000
P21	P2	0.561850	0.808570	0.355000
H21	H2	0.552000	0.708000	0.273000
O11	O1	0.721690	0.896100	0.281100
O21	O2	0.807790	0.032000	0.270600
O31	O3	0.792590	0.802300	0.103000
O41	O4	0.615330	0.782900	0.417000
O51	O5	0.559620	0.942800	0.238200
O61	O6	0.522120	0.823600	0.487600
Zn21	Zn2	0.187450	0.225020	0.880220
P31	P3	0.266720	0.441680	0.680560
H31	H3	0.251000	0.507000	0.572000
P41	P4	0.061850	0.308570	0.855000
H41	H4	0.052000	0.208000	0.773000
O71	O7	0.221690	0.396100	0.781100
O81	O8	0.307790	0.532000	0.770600
O91	O9	0.292590	0.302300	0.603000
O101	O10	0.115330	0.282900	0.917000
O111	O11	0.059620	0.442800	0.738200
O121	O12	0.022120	0.323600	0.987600
Zn31	Zn3	0.312550	0.274980	0.380220
P51	P5	0.233280	0.058320	0.180560
H51	H5	0.249000	0.993000	0.072000
P61	P6	0.438150	0.191430	0.355000
H61	H6	0.448000	0.292000	0.273000
O131	O13	0.278310	0.103900	0.281100
O141	O14	0.192210	0.968000	0.270600
O151	O15	0.207410	0.197700	0.103000
O161	O16	0.384670	0.217100	0.417000
O171	O17	0.440380	0.057200	0.238200
O181	O18	0.477880	0.176400	0.487600
Zn41	Zn4	0.812550	0.774980	0.880220
P71	P7	0.733280	0.558320	0.680560
H71	H7	0.749000	0.493000	0.572000
P81	P8	0.938150	0.691430	0.855000
H81	H8	0.948000	0.792000	0.773000
O191	O19	0.778310	0.603900	0.781100
O201	O20	0.692210	0.468000	0.770600
O211	O21	0.707410	0.697700	0.603000
O221	O22	0.884670	0.717100	0.917000
O231	O23	0.940380	0.557200	0.738200
O241	O24	0.977880	0.676400	0.987600
Zn51	Zn5	0.187450	0.774980	0.380220
P91	P9	0.266720	0.558320	0.180560
H91	H9	0.251000	0.493000	0.072000
P101	P10	0.061850	0.691430	0.355000
H101	H10	0.052000	0.792000	0.273000
O251	O25	0.221690	0.603900	0.281100
O261	O26	0.307790	0.468000	0.270600
O271	O27	0.292590	0.697700	0.103000
O281	O28	0.115330	0.717100	0.417000
O291	O29	0.059620	0.557200	0.238200
O301	O30	0.022120	0.676400	0.487600
Zn61	Zn6	0.687450	0.274980	0.880220
P111	P11	0.766720	0.058320	0.680560
H111	H11	0.751000	0.993000	0.572000
P121	P12	0.561850	0.191430	0.855000
H121	H12	0.552000	0.292000	0.773000
O311	O31	0.721690	0.103900	0.781100
O321	O32	0.807790	0.968000	0.770600
O331	O33	0.792590	0.197700	0.603000
O341	O34	0.615330	0.217100	0.917000
O351	O35	0.559620	0.057200	0.738200
O361	O36	0.522120	0.176400	0.987600
Zn71	Zn7	0.812550	0.225020	0.380220
P131	P13	0.733280	0.441680	0.180560
H131	H13	0.749000	0.507000	0.072000
P141	P14	0.938150	0.308570	0.355000
H141	H14	0.948000	0.208000	0.273000
O371	O37	0.778310	0.396100	0.281100
O381	O38	0.692210	0.532000	0.270600
O391	O39	0.707410	0.302300	0.103000
O401	O40	0.884670	0.282900	0.417000
O411	O41	0.940380	0.442800	0.238200
O421	O42	0.977880	0.323600	0.487600
Zn81	Zn8	0.312550	0.725020	0.880220
P151	P15	0.233280	0.941680	0.680560
H151	H15	0.249000	0.007000	0.572000
P161	P16	0.438150	0.808570	0.855000
H161	H16	0.448000	0.708000	0.773000
O431	O43	0.278310	0.896100	0.781100
O441	O44	0.192210	0.032000	0.770600
O451	O45	0.207410	0.802300	0.603000
O461	O46	0.384670	0.782900	0.917000
O471	O47	0.440380	0.942800	0.738200
O481	O48	0.477880	0.823600	0.987600
Zn91	Zn9	0.500000	0.000000	0.107140
Zn101	Zn10	0.000000	0.500000	0.607140
Zn111	Zn11	0.000000	0.500000	0.107140
Zn121	Zn12	0.500000	0.000000	0.607140
