data_VEHLIE_clean_PM
_symmetry_space_group_name_H-M	'P1'
_cell_length_a	9.060600
_cell_length_b	15.758700
_cell_length_c	32.045300
_cell_angle_alpha	90.000000
_cell_angle_beta	90.000000
_cell_angle_gamma	90.000000
_symmetry_Int_Tables_number 1

loop_
_symmetry_equiv_pos_as_xyz
'x,y,z'

loop_
_atom_site_label
_atom_site_type_symbol
_atom_site_fract_x
_atom_site_fract_y
_atom_site_fract_z
P11	P1	0.355200	0.194370	0.058040
O11	O1	0.418700	0.278800	0.046640
O21	O2	0.302500	0.143000	0.021550
O31	O3	0.243200	0.201500	0.092490
H11	H1	0.474500	0.152200	0.071900
P21	P2	0.355200	0.694370	0.558040
O41	O4	0.418700	0.778800	0.546640
O51	O5	0.302500	0.643000	0.521550
O61	O6	0.243200	0.701500	0.592490
H21	H2	0.474500	0.652200	0.571900
P31	P3	0.855200	0.194370	0.558040
O71	O7	0.918700	0.278800	0.546640
O81	O8	0.802500	0.143000	0.521550
O91	O9	0.743200	0.201500	0.592490
H31	H3	0.974500	0.152200	0.571900
P41	P4	0.855200	0.694370	0.058040
O101	O10	0.918700	0.778800	0.046640
O111	O11	0.802500	0.643000	0.021550
O121	O12	0.743200	0.701500	0.092490
H41	H4	0.974500	0.652200	0.071900
P51	P5	0.394800	0.555630	0.058040
O131	O13	0.331300	0.471200	0.046640
O141	O14	0.447500	0.607000	0.021550
O151	O15	0.506800	0.548500	0.092490
H51	H5	0.275500	0.597800	0.071900
P61	P6	0.394800	0.055630	0.558040
O161	O16	0.331300	0.971200	0.546640
O171	O17	0.447500	0.107000	0.521550
O181	O18	0.506800	0.048500	0.592490
H61	H6	0.275500	0.097800	0.571900
P71	P7	0.894800	0.555630	0.558040
O191	O19	0.831300	0.471200	0.546640
O201	O20	0.947500	0.607000	0.521550
O211	O21	0.006800	0.548500	0.592490
H71	H7	0.775500	0.597800	0.571900
P81	P8	0.894800	0.055630	0.058040
O221	O22	0.831300	0.971200	0.046640
O231	O23	0.947500	0.107000	0.021550
O241	O24	0.006800	0.048500	0.092490
H81	H8	0.775500	0.097800	0.071900
P91	P9	0.394800	0.194370	0.691960
O251	O25	0.331300	0.278800	0.703360
O261	O26	0.447500	0.143000	0.728450
O271	O27	0.506800	0.201500	0.657510
H91	H9	0.275500	0.152200	0.678100
P101	P10	0.394800	0.694370	0.191960
O281	O28	0.331300	0.778800	0.203360
O291	O29	0.447500	0.643000	0.228450
O301	O30	0.506800	0.701500	0.157510
H101	H10	0.275500	0.652200	0.178100
P111	P11	0.894800	0.194370	0.191960
O311	O31	0.831300	0.278800	0.203360
O321	O32	0.947500	0.143000	0.228450
O331	O33	0.006800	0.201500	0.157510
H111	H11	0.775500	0.152200	0.178100
P121	P12	0.894800	0.694370	0.691960
O341	O34	0.831300	0.778800	0.703360
O351	O35	0.947500	0.643000	0.728450
O361	O36	0.006800	0.701500	0.657510
H121	H12	0.775500	0.652200	0.678100
P131	P13	0.355200	0.555630	0.691960
O371	O37	0.418700	0.471200	0.703360
O381	O38	0.302500	0.607000	0.728450
O391	O39	0.243200	0.548500	0.657510
H131	H13	0.474500	0.597800	0.678100
P141	P14	0.355200	0.055630	0.191960
O401	O40	0.418700	0.971200	0.203360
O411	O41	0.302500	0.107000	0.228450
O421	O42	0.243200	0.048500	0.157510
H141	H14	0.474500	0.097800	0.178100
P151	P15	0.855200	0.555630	0.191960
O431	O43	0.918700	0.471200	0.203360
O441	O44	0.802500	0.607000	0.228450
O451	O45	0.743200	0.548500	0.157510
H151	H15	0.974500	0.597800	0.178100
P161	P16	0.855200	0.055630	0.691960
O461	O46	0.918700	0.971200	0.703360
O471	O47	0.802500	0.107000	0.728450
O481	O48	0.743200	0.048500	0.657510
H161	H16	0.974500	0.097800	0.678100
P171	P17	0.644800	0.805630	0.941960
O491	O49	0.581300	0.721200	0.953360
O501	O50	0.697500	0.857000	0.978450
O511	O51	0.756800	0.798500	0.907510
H171	H17	0.525500	0.847800	0.928100
P181	P18	0.644800	0.305630	0.441960
O521	O52	0.581300	0.221200	0.453360
O531	O53	0.697500	0.357000	0.478450
O541	O54	0.756800	0.298500	0.407510
H181	H18	0.525500	0.347800	0.428100
P191	P19	0.144800	0.805630	0.441960
O551	O55	0.081300	0.721200	0.453360
O561	O56	0.197500	0.857000	0.478450
O571	O57	0.256800	0.798500	0.407510
H191	H19	0.025500	0.847800	0.428100
P201	P20	0.144800	0.305630	0.941960
O581	O58	0.081300	0.221200	0.953360
O591	O59	0.197500	0.357000	0.978450
O601	O60	0.256800	0.298500	0.907510
H201	H20	0.025500	0.347800	0.928100
P211	P21	0.605200	0.444370	0.941960
O611	O61	0.668700	0.528800	0.953360
O621	O62	0.552500	0.393000	0.978450
O631	O63	0.493200	0.451500	0.907510
H211	H21	0.724500	0.402200	0.928100
P221	P22	0.605200	0.944370	0.441960
O641	O64	0.668700	0.028800	0.453360
O651	O65	0.552500	0.893000	0.478450
O661	O66	0.493200	0.951500	0.407510
H221	H22	0.724500	0.902200	0.428100
P231	P23	0.105200	0.444370	0.441960
O671	O67	0.168700	0.528800	0.453360
O681	O68	0.052500	0.393000	0.478450
O691	O69	0.993200	0.451500	0.407510
H231	H23	0.224500	0.402200	0.428100
P241	P24	0.105200	0.944370	0.941960
O701	O70	0.168700	0.028800	0.953360
O711	O71	0.052500	0.893000	0.978450
O721	O72	0.993200	0.951500	0.907510
H241	H24	0.224500	0.902200	0.928100
P251	P25	0.605200	0.805630	0.308040
O731	O73	0.668700	0.721200	0.296640
O741	O74	0.552500	0.857000	0.271550
O751	O75	0.493200	0.798500	0.342490
H251	H25	0.724500	0.847800	0.321900
P261	P26	0.605200	0.305630	0.808040
O761	O76	0.668700	0.221200	0.796640
O771	O77	0.552500	0.357000	0.771550
O781	O78	0.493200	0.298500	0.842490
H261	H26	0.724500	0.347800	0.821900
P271	P27	0.105200	0.805630	0.808040
O791	O79	0.168700	0.721200	0.796640
O801	O80	0.052500	0.857000	0.771550
O811	O81	0.993200	0.798500	0.842490
H271	H27	0.224500	0.847800	0.821900
P281	P28	0.105200	0.305630	0.308040
O821	O82	0.168700	0.221200	0.296640
O831	O83	0.052500	0.357000	0.271550
O841	O84	0.993200	0.298500	0.342490
H281	H28	0.224500	0.347800	0.321900
P291	P29	0.644800	0.444370	0.308040
O851	O85	0.581300	0.528800	0.296640
O861	O86	0.697500	0.393000	0.271550
O871	O87	0.756800	0.451500	0.342490
H291	H29	0.525500	0.402200	0.321900
P301	P30	0.644800	0.944370	0.808040
O881	O88	0.581300	0.028800	0.796640
O891	O89	0.697500	0.893000	0.771550
O901	O90	0.756800	0.951500	0.842490
H301	H30	0.525500	0.902200	0.821900
P311	P31	0.144800	0.444370	0.808040
O911	O91	0.081300	0.528800	0.796640
O921	O92	0.197500	0.393000	0.771550
O931	O93	0.256800	0.451500	0.842490
H311	H31	0.025500	0.402200	0.821900
P321	P32	0.144800	0.944370	0.308040
O941	O94	0.081300	0.028800	0.296640
O951	O95	0.197500	0.893000	0.271550
O961	O96	0.256800	0.951500	0.342490
H321	H32	0.025500	0.902200	0.321900
Zn11	Zn1	0.375000	0.375000	0.010830
Zn21	Zn2	0.375000	0.875000	0.510830
Zn31	Zn3	0.875000	0.375000	0.510830
Zn41	Zn4	0.875000	0.875000	0.010830
Zn51	Zn5	0.375000	0.375000	0.739170
Zn61	Zn6	0.375000	0.875000	0.239170
Zn71	Zn7	0.875000	0.375000	0.239170
Zn81	Zn8	0.875000	0.875000	0.739170
Zn91	Zn9	0.625000	0.625000	0.989170
Zn101	Zn10	0.625000	0.125000	0.489170
Zn111	Zn11	0.125000	0.625000	0.489170
Zn121	Zn12	0.125000	0.125000	0.989170
Zn131	Zn13	0.625000	0.625000	0.260830
Zn141	Zn14	0.625000	0.125000	0.760830
Zn151	Zn15	0.125000	0.625000	0.760830
Zn161	Zn16	0.125000	0.125000	0.260830
Zn171	Zn17	0.125000	0.125000	0.125000
Zn181	Zn18	0.125000	0.625000	0.625000
Zn191	Zn19	0.625000	0.125000	0.625000
Zn201	Zn20	0.625000	0.625000	0.125000
Zn211	Zn21	0.875000	0.875000	0.875000
Zn221	Zn22	0.875000	0.375000	0.375000
Zn231	Zn23	0.375000	0.875000	0.375000
Zn241	Zn24	0.375000	0.375000	0.875000
