data_VEHLEA_clean_PM
_symmetry_space_group_name_H-M	'P1'
_cell_length_a	15.789100
_cell_length_b	8.430600
_cell_length_c	16.135800
_cell_angle_alpha	90.000000
_cell_angle_beta	112.357000
_cell_angle_gamma	90.000000
_symmetry_Int_Tables_number 1

loop_
_symmetry_equiv_pos_as_xyz
'x,y,z'

loop_
_atom_site_label
_atom_site_type_symbol
_atom_site_fract_x
_atom_site_fract_y
_atom_site_fract_z
Zn11	Zn1	0.636440	0.637540	0.524470
P11	P1	0.520400	0.372610	0.400480
O11	O1	0.607700	0.422000	0.476200
O21	O2	0.455700	0.286600	0.432500
O31	O3	0.474800	0.511000	0.340600
H11	H1	0.548000	0.262000	0.353000
P21	P2	0.652520	0.862600	0.364920
H21	H2	0.614000	0.001000	0.344000
O41	O4	0.749300	0.900200	0.376100
O51	O5	0.639700	0.808800	0.448100
O61	O6	0.610200	0.752900	0.286300
Zn21	Zn2	0.136440	0.137540	0.524470
P31	P3	0.020400	0.872610	0.400480
O71	O7	0.107700	0.922000	0.476200
O81	O8	0.955700	0.786600	0.432500
O91	O9	0.974800	0.011000	0.340600
H31	H3	0.048000	0.762000	0.353000
P41	P4	0.152520	0.362600	0.364920
H41	H4	0.114000	0.501000	0.344000
O101	O10	0.249300	0.400200	0.376100
O111	O11	0.139700	0.308800	0.448100
O121	O12	0.110200	0.252900	0.286300
Zn31	Zn3	0.363560	0.637540	0.975530
P51	P5	0.479600	0.372610	0.099520
O131	O13	0.392300	0.422000	0.023800
O141	O14	0.544300	0.286600	0.067500
O151	O15	0.525200	0.511000	0.159400
H51	H5	0.452000	0.262000	0.147000
P61	P6	0.347480	0.862600	0.135080
H61	H6	0.386000	0.001000	0.156000
O161	O16	0.250700	0.900200	0.123900
O171	O17	0.360300	0.808800	0.051900
O181	O18	0.389800	0.752900	0.213700
Zn41	Zn4	0.863560	0.137540	0.975530
P71	P7	0.979600	0.872610	0.099520
O191	O19	0.892300	0.922000	0.023800
O201	O20	0.044300	0.786600	0.067500
O211	O21	0.025200	0.011000	0.159400
H71	H7	0.952000	0.762000	0.147000
P81	P8	0.847480	0.362600	0.135080
H81	H8	0.886000	0.501000	0.156000
O221	O22	0.750700	0.400200	0.123900
O231	O23	0.860300	0.308800	0.051900
O241	O24	0.889800	0.252900	0.213700
Zn51	Zn5	0.363560	0.362460	0.475530
P91	P9	0.479600	0.627390	0.599520
O251	O25	0.392300	0.578000	0.523800
O261	O26	0.544300	0.713400	0.567500
O271	O27	0.525200	0.489000	0.659400
H91	H9	0.452000	0.738000	0.647000
P101	P10	0.347480	0.137400	0.635080
H101	H10	0.386000	0.999000	0.656000
O281	O28	0.250700	0.099800	0.623900
O291	O29	0.360300	0.191200	0.551900
O301	O30	0.389800	0.247100	0.713700
Zn61	Zn6	0.863560	0.862460	0.475530
P111	P11	0.979600	0.127390	0.599520
O311	O31	0.892300	0.078000	0.523800
O321	O32	0.044300	0.213400	0.567500
O331	O33	0.025200	0.989000	0.659400
H111	H11	0.952000	0.238000	0.647000
P121	P12	0.847480	0.637400	0.635080
H121	H12	0.886000	0.499000	0.656000
O341	O34	0.750700	0.599800	0.623900
O351	O35	0.860300	0.691200	0.551900
O361	O36	0.889800	0.747100	0.713700
Zn71	Zn7	0.636440	0.362460	0.024470
P131	P13	0.520400	0.627390	0.900480
O371	O37	0.607700	0.578000	0.976200
O381	O38	0.455700	0.713400	0.932500
O391	O39	0.474800	0.489000	0.840600
H131	H13	0.548000	0.738000	0.853000
P141	P14	0.652520	0.137400	0.864920
H141	H14	0.614000	0.999000	0.844000
O401	O40	0.749300	0.099800	0.876100
O411	O41	0.639700	0.191200	0.948100
O421	O42	0.610200	0.247100	0.786300
Zn81	Zn8	0.136440	0.862460	0.024470
P151	P15	0.020400	0.127390	0.900480
O431	O43	0.107700	0.078000	0.976200
O441	O44	0.955700	0.213400	0.932500
O451	O45	0.974800	0.989000	0.840600
H151	H15	0.048000	0.238000	0.853000
P161	P16	0.152520	0.637400	0.864920
H161	H16	0.114000	0.499000	0.844000
O461	O46	0.249300	0.599800	0.876100
O471	O47	0.139700	0.691200	0.948100
O481	O48	0.110200	0.747100	0.786300
Zn91	Zn9	0.500000	0.627220	0.250000
Zn101	Zn10	0.000000	0.127220	0.250000
Zn111	Zn11	0.500000	0.372780	0.750000
Zn121	Zn12	0.000000	0.872780	0.750000
