data_VEHNED_clean_PM
_symmetry_space_group_name_H-M	'P1'
_cell_length_a	12.606000
_cell_length_b	12.606000
_cell_length_c	19.668000
_cell_angle_alpha	90.000000
_cell_angle_beta	90.000000
_cell_angle_gamma	120.000000
_symmetry_Int_Tables_number 1

loop_
_symmetry_equiv_pos_as_xyz
'x,y,z'

loop_
_atom_site_label
_atom_site_type_symbol
_atom_site_fract_x
_atom_site_fract_y
_atom_site_fract_z
Na11	Na1	0.688300	0.178000	0.567470
Na21	Na2	0.199400	0.026200	0.534800
Na31	Na3	0.489700	0.311700	0.567470
Na41	Na4	0.826800	0.800600	0.534800
Na51	Na5	0.822000	0.510300	0.567470
Na61	Na6	0.973800	0.173200	0.534800
Na71	Na7	0.311700	0.822000	0.067470
Na81	Na8	0.800600	0.973800	0.034800
Na91	Na9	0.510300	0.688300	0.067470
Na101	Na10	0.173200	0.199400	0.034800
Na111	Na11	0.178000	0.489700	0.067470
Na121	Na12	0.026200	0.826800	0.034800
Na131	Na13	0.311700	0.822000	0.432530
Na141	Na14	0.800600	0.973800	0.465200
Na151	Na15	0.510300	0.688300	0.432530
Na161	Na16	0.173200	0.199400	0.465200
Na171	Na17	0.178000	0.489700	0.432530
Na181	Na18	0.026200	0.826800	0.465200
Na191	Na19	0.688300	0.178000	0.932530
Na201	Na20	0.199400	0.026200	0.965200
Na211	Na21	0.489700	0.311700	0.932530
Na221	Na22	0.826800	0.800600	0.965200
Na231	Na23	0.822000	0.510300	0.932530
Na241	Na24	0.973800	0.173200	0.965200
Ni11	Ni1	0.666670	0.333340	0.423430
Ni21	Ni2	0.333330	0.666660	0.923430
Ni31	Ni3	0.333330	0.666660	0.576570
Ni41	Ni4	0.666670	0.333340	0.076570
H11	H1	0.827200	0.170700	0.351900
H21	H2	0.343500	0.172800	0.351900
H31	H3	0.829300	0.656500	0.351900
H41	H4	0.172800	0.829300	0.851900
H51	H5	0.656500	0.827200	0.851900
H61	H6	0.170700	0.343500	0.851900
H71	H7	0.172800	0.829300	0.648100
H81	H8	0.656500	0.827200	0.648100
H91	H9	0.170700	0.343500	0.648100
H101	H10	0.827200	0.170700	0.148100
H111	H11	0.343500	0.172800	0.148100
H121	H12	0.829300	0.656500	0.148100
H131	H13	0.545500	0.152100	0.250000
H141	H14	0.920300	0.177700	0.250000
H151	H15	0.606600	0.454500	0.250000
H161	H16	0.257400	0.079700	0.250000
H171	H17	0.847900	0.393400	0.250000
H181	H18	0.822300	0.742600	0.250000
H191	H19	0.454500	0.847900	0.750000
H201	H20	0.079700	0.822300	0.750000
H211	H21	0.393400	0.545500	0.750000
H221	H22	0.742600	0.920300	0.750000
H231	H23	0.152100	0.606600	0.750000
H241	H24	0.177700	0.257400	0.750000
C11	C1	0.471100	0.098300	0.460300
C21	C2	0.530000	0.077200	0.395500
C31	C3	0.678200	0.164700	0.311200
C41	C4	0.789300	0.169600	0.311100
C51	C5	0.627200	0.528900	0.460300
C61	C6	0.547200	0.470000	0.395500
C71	C7	0.486500	0.321800	0.311200
C81	C8	0.380300	0.210700	0.311100
C91	C9	0.901700	0.372800	0.460300
C101	C10	0.922800	0.452800	0.395500
C111	C11	0.835300	0.513500	0.311200
C121	C12	0.830400	0.619700	0.311100
C131	C13	0.528900	0.901700	0.960300
C141	C14	0.470000	0.922800	0.895500
C151	C15	0.321800	0.835300	0.811200
C161	C16	0.210700	0.830400	0.811100
C171	C17	0.372800	0.471100	0.960300
C181	C18	0.452800	0.530000	0.895500
C191	C19	0.513500	0.678200	0.811200
C201	C20	0.619700	0.789300	0.811100
C211	C21	0.098300	0.627200	0.960300
C221	C22	0.077200	0.547200	0.895500
C231	C23	0.164700	0.486500	0.811200
C241	C24	0.169600	0.380300	0.811100
C251	C25	0.528900	0.901700	0.539700
C261	C26	0.470000	0.922800	0.604500
C271	C27	0.321800	0.835300	0.688800
C281	C28	0.210700	0.830400	0.688900
C291	C29	0.372800	0.471100	0.539700
C301	C30	0.452800	0.530000	0.604500
C311	C31	0.513500	0.678200	0.688800
C321	C32	0.619700	0.789300	0.688900
C331	C33	0.098300	0.627200	0.539700
C341	C34	0.077200	0.547200	0.604500
C351	C35	0.164700	0.486500	0.688800
C361	C36	0.169600	0.380300	0.688900
C371	C37	0.471100	0.098300	0.039700
C381	C38	0.530000	0.077200	0.104500
C391	C39	0.678200	0.164700	0.188800
C401	C40	0.789300	0.169600	0.188900
C411	C41	0.627200	0.528900	0.039700
C421	C42	0.547200	0.470000	0.104500
C431	C43	0.486500	0.321800	0.188800
C441	C44	0.380300	0.210700	0.188900
C451	C45	0.901700	0.372800	0.039700
C461	C46	0.922800	0.452800	0.104500
C471	C47	0.835300	0.513500	0.188800
C481	C48	0.830400	0.619700	0.188900
C491	C49	0.622700	0.159500	0.250000
C501	C50	0.844300	0.173000	0.250000
C511	C51	0.536800	0.377300	0.250000
C521	C52	0.328700	0.155700	0.250000
C531	C53	0.840500	0.463200	0.250000
C541	C54	0.827000	0.671300	0.250000
C551	C55	0.377300	0.840500	0.750000
C561	C56	0.155700	0.827000	0.750000
C571	C57	0.463200	0.622700	0.750000
C581	C58	0.671300	0.844300	0.750000
C591	C59	0.159500	0.536800	0.750000
C601	C60	0.173000	0.328700	0.750000
N11	N1	0.624900	0.173500	0.373400
N21	N2	0.548600	0.375100	0.373400
N31	N3	0.826500	0.451400	0.373400
N41	N4	0.375100	0.826500	0.873400
N51	N5	0.451400	0.624900	0.873400
N61	N6	0.173500	0.548600	0.873400
N71	N7	0.375100	0.826500	0.626600
N81	N8	0.451400	0.624900	0.626600
N91	N9	0.173500	0.548600	0.626600
N101	N10	0.624900	0.173500	0.126600
N111	N11	0.548600	0.375100	0.126600
N121	N12	0.826500	0.451400	0.126600
O11	O1	0.528900	0.203200	0.487100
O21	O2	0.372500	0.013100	0.480400
O31	O3	0.477300	0.967300	0.372500
O41	O4	0.674300	0.471100	0.487100
O51	O5	0.640600	0.627500	0.480400
O61	O6	0.490000	0.522700	0.372500
O71	O7	0.796800	0.325700	0.487100
O81	O8	0.986900	0.359400	0.480400
O91	O9	0.032700	0.510000	0.372500
O101	O10	0.471100	0.796800	0.987100
O111	O11	0.627500	0.986900	0.980400
O121	O12	0.522700	0.032700	0.872500
O131	O13	0.325700	0.528900	0.987100
O141	O14	0.359400	0.372500	0.980400
O151	O15	0.510000	0.477300	0.872500
O161	O16	0.203200	0.674300	0.987100
O171	O17	0.013100	0.640600	0.980400
O181	O18	0.967300	0.490000	0.872500
O191	O19	0.471100	0.796800	0.512900
O201	O20	0.627500	0.986900	0.519600
O211	O21	0.522700	0.032700	0.627500
O221	O22	0.325700	0.528900	0.512900
O231	O23	0.359400	0.372500	0.519600
O241	O24	0.510000	0.477300	0.627500
O251	O25	0.203200	0.674300	0.512900
O261	O26	0.013100	0.640600	0.519600
O271	O27	0.967300	0.490000	0.627500
O281	O28	0.528900	0.203200	0.012900
O291	O29	0.372500	0.013100	0.019600
O301	O30	0.477300	0.967300	0.127500
O311	O31	0.674300	0.471100	0.012900
O321	O32	0.640600	0.627500	0.019600
O331	O33	0.490000	0.522700	0.127500
O341	O34	0.796800	0.325700	0.012900
O351	O35	0.986900	0.359400	0.019600
O361	O36	0.032700	0.510000	0.127500
O371	O37	0.666670	0.333340	0.645500
O381	O38	0.333330	0.666660	0.145500
O391	O39	0.333330	0.666660	0.354500
O401	O40	0.666670	0.333340	0.854500
