data_VEHYUE_clean_PM
_symmetry_space_group_name_H-M	'P1'
_cell_length_a	21.560900
_cell_length_b	21.560900
_cell_length_c	11.367700
_cell_angle_alpha	90.000000
_cell_angle_beta	90.000000
_cell_angle_gamma	90.000000
_symmetry_Int_Tables_number 1

loop_
_symmetry_equiv_pos_as_xyz
'x,y,z'

loop_
_atom_site_label
_atom_site_type_symbol
_atom_site_fract_x
_atom_site_fract_y
_atom_site_fract_z
Mo11	Mo1	0.383980	0.465130	0.216320
Mo21	Mo2	0.451870	0.358860	0.144520
P11	P1	0.290710	0.438880	0.443560
P21	P2	0.264920	0.544340	0.277970
S11	S1	0.465710	0.417540	0.314010
S21	S2	0.355220	0.391400	0.077710
O11	O1	0.424320	0.516310	0.133590
O21	O2	0.372620	0.516640	0.368450
O31	O3	0.297800	0.507100	0.180880
O41	O4	0.314830	0.404900	0.334810
O51	O5	0.498000	0.396250	0.048390
O61	O6	0.220030	0.432460	0.457870
O71	O7	0.196990	0.523360	0.286510
O81	O8	0.393880	0.297510	0.281640
H11	H1	0.362600	0.315500	0.301000
H21	H2	0.387000	0.267200	0.263000
O91	O9	0.322640	0.421040	0.556760
O101	O10	0.270300	0.613190	0.263280
C11	C1	0.309510	0.519590	0.407610
C21	C2	0.308670	0.564930	0.511570
H31	H3	0.335900	0.548500	0.574500
H41	H4	0.326200	0.605100	0.485400
N11	N1	0.246750	0.575800	0.560700
C31	C3	0.202670	0.617090	0.519870
H51	H5	0.206100	0.643100	0.452700
C41	C4	0.153660	0.613420	0.593980
H61	H6	0.116200	0.636500	0.589200
C51	C5	0.224710	0.548350	0.655850
H71	H7	0.245700	0.518100	0.701600
N21	N2	0.168350	0.570190	0.676680
H81	H8	0.144100	0.558500	0.735000
Rb11	Rb1	0.565150	0.516540	0.131870
Rb21	Rb2	0.468990	0.286010	0.503110
Mo31	Mo3	0.116020	0.034870	0.216320
Mo41	Mo4	0.048130	0.141140	0.144520
P31	P3	0.209290	0.061120	0.443560
P41	P4	0.235080	0.955660	0.277970
S31	S3	0.034290	0.082460	0.314010
S41	S4	0.144780	0.108600	0.077710
O111	O11	0.075680	0.983690	0.133590
O121	O12	0.127380	0.983360	0.368450
O131	O13	0.202200	0.992900	0.180880
O141	O14	0.185170	0.095100	0.334810
O151	O15	0.002000	0.103750	0.048390
O161	O16	0.279970	0.067540	0.457870
O171	O17	0.303010	0.976640	0.286510
O181	O18	0.106120	0.202490	0.281640
H91	H9	0.137400	0.184500	0.301000
H101	H10	0.113000	0.232800	0.263000
O191	O19	0.177360	0.078960	0.556760
O201	O20	0.229700	0.886810	0.263280
C61	C6	0.190490	0.980410	0.407610
C71	C7	0.191330	0.935070	0.511570
H111	H11	0.164100	0.951500	0.574500
H121	H12	0.173800	0.894900	0.485400
N31	N3	0.253250	0.924200	0.560700
C81	C8	0.297330	0.882910	0.519870
H131	H13	0.293900	0.856900	0.452700
C91	C9	0.346340	0.886580	0.593980
H141	H14	0.383800	0.863500	0.589200
C101	C10	0.275290	0.951650	0.655850
H151	H15	0.254300	0.981900	0.701600
N41	N4	0.331650	0.929810	0.676680
H161	H16	0.355900	0.941500	0.735000
Rb31	Rb3	0.934850	0.983460	0.131870
Rb41	Rb4	0.031010	0.213990	0.503110
Mo51	Mo5	0.534870	0.883980	0.716320
Mo61	Mo6	0.641140	0.951870	0.644520
P51	P5	0.561120	0.790710	0.943560
P61	P6	0.455660	0.764920	0.777970
S51	S5	0.582460	0.965710	0.814010
S61	S6	0.608600	0.855220	0.577710
O211	O21	0.483690	0.924320	0.633590
O221	O22	0.483360	0.872620	0.868450
O231	O23	0.492900	0.797800	0.680880
O241	O24	0.595100	0.814830	0.834810
O251	O25	0.603750	0.998000	0.548390
O261	O26	0.567540	0.720030	0.957870
O271	O27	0.476640	0.696990	0.786510
O281	O28	0.702490	0.893880	0.781640
H171	H17	0.684500	0.862600	0.801000
H181	H18	0.732800	0.887000	0.763000
O291	O29	0.578960	0.822640	0.056760
O301	O30	0.386810	0.770300	0.763280
C111	C11	0.480410	0.809510	0.907610
C121	C12	0.435070	0.808670	0.011570
H191	H19	0.451500	0.835900	0.074500
H201	H20	0.394900	0.826200	0.985400
N51	N5	0.424200	0.746750	0.060700
C131	C13	0.382910	0.702670	0.019870
H211	H21	0.356900	0.706100	0.952700
C141	C14	0.386580	0.653660	0.093980
H221	H22	0.363500	0.616200	0.089200
C151	C15	0.451650	0.724710	0.155850
H231	H23	0.481900	0.745700	0.201600
N61	N6	0.429810	0.668350	0.176680
H241	H24	0.441500	0.644100	0.235000
Rb51	Rb5	0.483460	0.065150	0.631870
Rb61	Rb6	0.713990	0.968990	0.003110
Mo71	Mo7	0.965130	0.616020	0.716320
Mo81	Mo8	0.858860	0.548130	0.644520
P71	P7	0.938880	0.709290	0.943560
P81	P8	0.044340	0.735080	0.777970
S71	S7	0.917540	0.534290	0.814010
S81	S8	0.891400	0.644780	0.577710
O311	O31	0.016310	0.575680	0.633590
O321	O32	0.016640	0.627380	0.868450
O331	O33	0.007100	0.702200	0.680880
O341	O34	0.904900	0.685170	0.834810
O351	O35	0.896250	0.502000	0.548390
O361	O36	0.932460	0.779970	0.957870
O371	O37	0.023360	0.803010	0.786510
O381	O38	0.797510	0.606120	0.781640
H251	H25	0.815500	0.637400	0.801000
H261	H26	0.767200	0.613000	0.763000
O391	O39	0.921040	0.677360	0.056760
O401	O40	0.113190	0.729700	0.763280
C161	C16	0.019590	0.690490	0.907610
C171	C17	0.064930	0.691330	0.011570
H271	H27	0.048500	0.664100	0.074500
H281	H28	0.105100	0.673800	0.985400
N71	N7	0.075800	0.753250	0.060700
C181	C18	0.117090	0.797330	0.019870
H291	H29	0.143100	0.793900	0.952700
C191	C19	0.113420	0.846340	0.093980
H301	H30	0.136500	0.883800	0.089200
C201	C20	0.048350	0.775290	0.155850
H311	H31	0.018100	0.754300	0.201600
N81	N8	0.070190	0.831650	0.176680
H321	H32	0.058500	0.855900	0.235000
Rb71	Rb7	0.016540	0.434850	0.631870
Rb81	Rb8	0.786010	0.531010	0.003110
Mo91	Mo9	0.616020	0.534870	0.783680
Mo101	Mo10	0.548130	0.641140	0.855480
P91	P9	0.709290	0.561120	0.556440
P101	P10	0.735080	0.455660	0.722030
S91	S9	0.534290	0.582460	0.685990
S101	S10	0.644780	0.608600	0.922290
O411	O41	0.575680	0.483690	0.866410
O421	O42	0.627380	0.483360	0.631550
O431	O43	0.702200	0.492900	0.819120
O441	O44	0.685170	0.595100	0.665190
O451	O45	0.502000	0.603750	0.951610
O461	O46	0.779970	0.567540	0.542130
O471	O47	0.803010	0.476640	0.713490
O481	O48	0.606120	0.702490	0.718360
H331	H33	0.637400	0.684500	0.699000
H341	H34	0.613000	0.732800	0.737000
O491	O49	0.677360	0.578960	0.443240
O501	O50	0.729700	0.386810	0.736720
C211	C21	0.690490	0.480410	0.592390
C221	C22	0.691330	0.435070	0.488430
H351	H35	0.664100	0.451500	0.425500
H361	H36	0.673800	0.394900	0.514600
N91	N9	0.753250	0.424200	0.439300
C231	C23	0.797330	0.382910	0.480130
H371	H37	0.793900	0.356900	0.547300
C241	C24	0.846340	0.386580	0.406020
H381	H38	0.883800	0.363500	0.410800
C251	C25	0.775290	0.451650	0.344150
H391	H39	0.754300	0.481900	0.298400
N101	N10	0.831650	0.429810	0.323320
H401	H40	0.855900	0.441500	0.265000
Rb91	Rb9	0.434850	0.483460	0.868130
Rb101	Rb10	0.531010	0.713990	0.496890
Mo111	Mo11	0.883980	0.965130	0.783680
Mo121	Mo12	0.951870	0.858860	0.855480
P111	P11	0.790710	0.938880	0.556440
P121	P12	0.764920	0.044340	0.722030
S111	S11	0.965710	0.917540	0.685990
S121	S12	0.855220	0.891390	0.922290
O511	O51	0.924320	0.016310	0.866410
O521	O52	0.872620	0.016640	0.631550
O531	O53	0.797800	0.007100	0.819120
O541	O54	0.814830	0.904900	0.665190
O551	O55	0.998000	0.896250	0.951610
O561	O56	0.720030	0.932460	0.542130
O571	O57	0.696990	0.023360	0.713490
O581	O58	0.893880	0.797510	0.718360
H411	H41	0.862600	0.815500	0.699000
H421	H42	0.887000	0.767200	0.737000
O591	O59	0.822640	0.921040	0.443240
O601	O60	0.770300	0.113190	0.736720
C261	C26	0.809510	0.019590	0.592390
C271	C27	0.808670	0.064930	0.488430
H431	H43	0.835900	0.048500	0.425500
H441	H44	0.826200	0.105100	0.514600
N111	N11	0.746750	0.075800	0.439300
C281	C28	0.702670	0.117090	0.480130
H451	H45	0.706100	0.143100	0.547300
C291	C29	0.653660	0.113420	0.406020
H461	H46	0.616200	0.136500	0.410800
C301	C30	0.724710	0.048350	0.344150
H471	H47	0.745700	0.018100	0.298400
N121	N12	0.668350	0.070190	0.323320
H481	H48	0.644100	0.058500	0.265000
Rb111	Rb11	0.065150	0.016540	0.868130
Rb121	Rb12	0.968990	0.786010	0.496890
Mo131	Mo13	0.465130	0.116020	0.283680
Mo141	Mo14	0.358860	0.048130	0.355480
P131	P13	0.438880	0.209290	0.056440
P141	P14	0.544340	0.235080	0.222030
S131	S13	0.417540	0.034290	0.185990
S141	S14	0.391400	0.144780	0.422290
O611	O61	0.516310	0.075680	0.366410
O621	O62	0.516640	0.127380	0.131550
O631	O63	0.507100	0.202200	0.319120
O641	O64	0.404900	0.185170	0.165190
O651	O65	0.396250	0.002000	0.451610
O661	O66	0.432460	0.279970	0.042130
O671	O67	0.523360	0.303010	0.213490
O681	O68	0.297510	0.106120	0.218360
H491	H49	0.315500	0.137400	0.199000
H501	H50	0.267200	0.113000	0.237000
O691	O69	0.421040	0.177360	0.943240
O701	O70	0.613190	0.229700	0.236720
C311	C31	0.519590	0.190490	0.092390
C321	C32	0.564930	0.191330	0.988430
H511	H51	0.548500	0.164100	0.925500
H521	H52	0.605100	0.173800	0.014600
N131	N13	0.575800	0.253250	0.939300
C331	C33	0.617090	0.297330	0.980130
H531	H53	0.643100	0.293900	0.047300
C341	C34	0.613420	0.346340	0.906020
H541	H54	0.636500	0.383800	0.910800
C351	C35	0.548350	0.275290	0.844150
H551	H55	0.518100	0.254300	0.798400
N141	N14	0.570190	0.331650	0.823320
H561	H56	0.558500	0.355900	0.765000
Rb131	Rb13	0.516540	0.934850	0.368130
Rb141	Rb14	0.286010	0.031010	0.996890
Mo151	Mo15	0.034870	0.383980	0.283680
Mo161	Mo16	0.141140	0.451870	0.355480
P151	P15	0.061120	0.290710	0.056440
P161	P16	0.955660	0.264920	0.222030
S151	S15	0.082460	0.465710	0.185990
S161	S16	0.108600	0.355220	0.422290
O711	O71	0.983690	0.424320	0.366410
O721	O72	0.983360	0.372620	0.131550
O731	O73	0.992900	0.297800	0.319120
O741	O74	0.095100	0.314830	0.165190
O751	O75	0.103750	0.498000	0.451610
O761	O76	0.067540	0.220030	0.042130
O771	O77	0.976640	0.196990	0.213490
O781	O78	0.202490	0.393880	0.218360
H571	H57	0.184500	0.362600	0.199000
H581	H58	0.232800	0.387000	0.237000
O791	O79	0.078960	0.322640	0.943240
O801	O80	0.886810	0.270300	0.236720
C361	C36	0.980410	0.309510	0.092390
C371	C37	0.935070	0.308670	0.988430
H591	H59	0.951500	0.335900	0.925500
H601	H60	0.894900	0.326200	0.014600
N151	N15	0.924200	0.246750	0.939300
C381	C38	0.882910	0.202670	0.980130
H611	H61	0.856900	0.206100	0.047300
C391	C39	0.886580	0.153660	0.906020
H621	H62	0.863500	0.116200	0.910800
C401	C40	0.951650	0.224710	0.844150
H631	H63	0.981900	0.245700	0.798400
N161	N16	0.929810	0.168350	0.823320
H641	H64	0.941500	0.144100	0.765000
Rb151	Rb15	0.983460	0.565150	0.368130
Rb161	Rb16	0.213990	0.468990	0.996890
