data_VEJYIT01_clean_PM
_symmetry_space_group_name_H-M	'P1'
_cell_length_a	9.801000
_cell_length_b	24.104000
_cell_length_c	24.356000
_cell_angle_alpha	90.000000
_cell_angle_beta	90.000000
_cell_angle_gamma	90.000000
_symmetry_Int_Tables_number 1

loop_
_symmetry_equiv_pos_as_xyz
'x,y,z'

loop_
_atom_site_label
_atom_site_type_symbol
_atom_site_fract_x
_atom_site_fract_y
_atom_site_fract_z
Zn11	Zn1	0.024660	0.824220	0.499440
Zn21	Zn2	0.000400	0.000590	0.323370
Zn31	Zn3	0.475340	0.175780	0.999440
Zn41	Zn4	0.499600	0.999410	0.823370
Zn51	Zn5	0.975340	0.324220	0.000560
Zn61	Zn6	0.999600	0.500590	0.176630
Zn71	Zn7	0.524660	0.675780	0.500560
Zn81	Zn8	0.500400	0.499410	0.676630
Zn91	Zn9	0.975340	0.175780	0.500560
Zn101	Zn10	0.999600	0.999410	0.676630
Zn111	Zn11	0.524660	0.824220	0.000560
Zn121	Zn12	0.500400	0.000590	0.176630
Zn131	Zn13	0.024660	0.675780	0.999440
Zn141	Zn14	0.000400	0.499410	0.823370
Zn151	Zn15	0.475340	0.324220	0.499440
Zn161	Zn16	0.499600	0.500590	0.323370
H11	H1	0.731500	0.776300	0.530900
H21	H2	0.787000	0.656700	0.426200
H31	H3	0.988200	0.715600	0.425500
H41	H4	0.978800	0.945600	0.442500
H51	H5	0.067100	0.939600	0.559700
H61	H6	0.848400	0.814400	0.609300
H71	H7	0.842400	0.885000	0.679900
H81	H8	0.301000	0.969000	0.276900
H91	H9	0.014800	0.055500	0.205000
H101	H10	0.213300	0.052800	0.144800
H111	H11	0.112700	0.878200	0.307100
H121	H12	0.124000	0.809800	0.380000
H131	H13	0.768500	0.223700	0.030900
H141	H14	0.713000	0.343300	0.926200
H151	H15	0.511800	0.284400	0.925500
H161	H16	0.521200	0.054400	0.942500
H171	H17	0.432900	0.060400	0.059700
H181	H18	0.651600	0.185600	0.109300
H191	H19	0.657600	0.115000	0.179900
H201	H20	0.199000	0.031000	0.776900
H211	H21	0.485200	0.944500	0.705000
H221	H22	0.286700	0.947200	0.644800
H231	H23	0.387300	0.121800	0.807100
H241	H24	0.376000	0.190200	0.880000
H251	H25	0.268500	0.276300	0.969100
H261	H26	0.213000	0.156700	0.073800
H271	H27	0.011800	0.215600	0.074500
H281	H28	0.021200	0.445600	0.057500
H291	H29	0.932900	0.439600	0.940300
H301	H30	0.151600	0.314400	0.890700
H311	H31	0.157600	0.385000	0.820100
H321	H32	0.699000	0.469000	0.223100
H331	H33	0.985200	0.555500	0.295000
H341	H34	0.786700	0.552800	0.355200
H351	H35	0.887300	0.378200	0.192900
H361	H36	0.876000	0.309800	0.120000
H371	H37	0.231500	0.723700	0.469100
H381	H38	0.287000	0.843300	0.573800
H391	H39	0.488200	0.784400	0.574500
H401	H40	0.478800	0.554400	0.557500
H411	H41	0.567100	0.560400	0.440300
H421	H42	0.348400	0.685600	0.390700
H431	H43	0.342400	0.615000	0.320100
H441	H44	0.801000	0.531000	0.723100
H451	H45	0.514800	0.444500	0.795000
H461	H46	0.713300	0.447200	0.855200
H471	H47	0.612700	0.621800	0.692900
H481	H48	0.624000	0.690200	0.620000
H491	H49	0.268500	0.223700	0.469100
H501	H50	0.213000	0.343300	0.573800
H511	H51	0.011800	0.284400	0.574500
H521	H52	0.021200	0.054400	0.557500
H531	H53	0.932900	0.060400	0.440300
H541	H54	0.151600	0.185600	0.390700
H551	H55	0.157600	0.115000	0.320100
H561	H56	0.699000	0.031000	0.723100
H571	H57	0.985200	0.944500	0.795000
H581	H58	0.786700	0.947200	0.855200
H591	H59	0.887300	0.121800	0.692900
H601	H60	0.876000	0.190200	0.620000
H611	H61	0.231500	0.776300	0.969100
H621	H62	0.287000	0.656700	0.073800
H631	H63	0.488200	0.715600	0.074500
H641	H64	0.478800	0.945600	0.057500
H651	H65	0.567100	0.939600	0.940300
H661	H66	0.348400	0.814400	0.890700
H671	H67	0.342400	0.885000	0.820100
H681	H68	0.801000	0.969000	0.223100
H691	H69	0.514800	0.055500	0.295000
H701	H70	0.713300	0.052800	0.355200
H711	H71	0.612700	0.878200	0.192900
H721	H72	0.624000	0.809800	0.120000
H731	H73	0.731500	0.723700	0.030900
H741	H74	0.787000	0.843300	0.926200
H751	H75	0.988200	0.784400	0.925500
H761	H76	0.978800	0.554400	0.942500
H771	H77	0.067100	0.560400	0.059700
H781	H78	0.848400	0.685600	0.109300
H791	H79	0.842400	0.615000	0.179900
H801	H80	0.301000	0.531000	0.776900
H811	H81	0.014800	0.444500	0.705000
H821	H82	0.213300	0.447200	0.644800
H831	H83	0.112700	0.621800	0.807100
H841	H84	0.124000	0.690200	0.880000
H851	H85	0.768500	0.276300	0.530900
H861	H86	0.713000	0.156700	0.426200
H871	H87	0.511800	0.215600	0.425500
H881	H88	0.521200	0.445600	0.442500
H891	H89	0.432900	0.439600	0.559700
H901	H90	0.651600	0.314400	0.609300
H911	H91	0.657600	0.385000	0.679900
H921	H92	0.199000	0.469000	0.276900
H931	H93	0.485200	0.555500	0.205000
H941	H94	0.286700	0.552800	0.144800
H951	H95	0.387300	0.378200	0.307100
H961	H96	0.376000	0.309800	0.380000
C11	C1	0.771200	0.753300	0.504800
C21	C2	0.799600	0.688100	0.447800
C31	C3	0.911500	0.720700	0.447400
C41	C4	0.012700	0.919900	0.417500
C51	C5	0.010600	0.917300	0.581000
C61	C6	0.891900	0.848700	0.607600
C71	C7	0.888600	0.887800	0.646700
C81	C8	0.254100	0.990700	0.251600
C91	C9	0.096600	0.037500	0.212400
C101	C10	0.207600	0.036500	0.179400
C111	C11	0.086100	0.883800	0.343300
C121	C12	0.091700	0.845900	0.383800
C131	C13	0.728800	0.246700	0.004800
C141	C14	0.700400	0.311900	0.947800
C151	C15	0.588500	0.279300	0.947400
C161	C16	0.487300	0.080100	0.917500
C171	C17	0.489400	0.082700	0.081000
C181	C18	0.608100	0.151300	0.107600
C191	C19	0.611400	0.112200	0.146700
C201	C20	0.245900	0.009300	0.751600
C211	C21	0.403400	0.962500	0.712400
C221	C22	0.292400	0.963500	0.679400
C231	C23	0.413900	0.116200	0.843300
C241	C24	0.408300	0.154100	0.883800
C251	C25	0.228800	0.253300	0.995200
C261	C26	0.200400	0.188100	0.052200
C271	C27	0.088500	0.220700	0.052600
C281	C28	0.987300	0.419900	0.082500
C291	C29	0.989400	0.417300	0.919000
C301	C30	0.108100	0.348700	0.892400
C311	C31	0.111400	0.387800	0.853300
C321	C32	0.745900	0.490700	0.248400
C331	C33	0.903400	0.537500	0.287600
C341	C34	0.792400	0.536500	0.320600
C351	C35	0.913900	0.383800	0.156700
C361	C36	0.908300	0.345900	0.116200
C371	C37	0.271200	0.746700	0.495200
C381	C38	0.299600	0.811900	0.552200
C391	C39	0.411500	0.779300	0.552600
C401	C40	0.512700	0.580100	0.582500
C411	C41	0.510600	0.582700	0.419000
C421	C42	0.391900	0.651300	0.392400
C431	C43	0.388600	0.612200	0.353300
C441	C44	0.754100	0.509300	0.748400
C451	C45	0.596600	0.462500	0.787600
C461	C46	0.707600	0.463500	0.820600
C471	C47	0.586100	0.616200	0.656700
C481	C48	0.591700	0.654100	0.616200
C491	C49	0.228800	0.246700	0.495200
C501	C50	0.200400	0.311900	0.552200
C511	C51	0.088500	0.279300	0.552600
C521	C52	0.987300	0.080100	0.582500
C531	C53	0.989400	0.082700	0.419000
C541	C54	0.108100	0.151300	0.392400
C551	C55	0.111400	0.112200	0.353300
C561	C56	0.745900	0.009300	0.748400
C571	C57	0.903400	0.962500	0.787600
C581	C58	0.792400	0.963500	0.820600
C591	C59	0.913900	0.116200	0.656700
C601	C60	0.908300	0.154100	0.616200
C611	C61	0.271200	0.753300	0.995200
C621	C62	0.299600	0.688100	0.052200
C631	C63	0.411500	0.720700	0.052600
C641	C64	0.512700	0.919900	0.082500
C651	C65	0.510600	0.917300	0.919000
C661	C66	0.391900	0.848700	0.892400
C671	C67	0.388600	0.887800	0.853300
C681	C68	0.754100	0.990700	0.248400
C691	C69	0.596600	0.037500	0.287600
C701	C70	0.707600	0.036500	0.320600
C711	C71	0.586100	0.883800	0.156700
C721	C72	0.591700	0.845900	0.116200
C731	C73	0.771200	0.746700	0.004800
C741	C74	0.799600	0.811900	0.947800
C751	C75	0.911500	0.779300	0.947400
C761	C76	0.012700	0.580100	0.917500
C771	C77	0.010600	0.582700	0.081000
C781	C78	0.891900	0.651300	0.107600
C791	C79	0.888600	0.612200	0.146700
C801	C80	0.254100	0.509300	0.751600
C811	C81	0.096600	0.462500	0.712400
C821	C82	0.207600	0.463500	0.679400
C831	C83	0.086100	0.616200	0.843300
C841	C84	0.091700	0.654100	0.883800
C851	C85	0.728800	0.253300	0.504800
C861	C86	0.700400	0.188100	0.447800
C871	C87	0.588500	0.220700	0.447400
C881	C88	0.487300	0.419900	0.417500
C891	C89	0.489400	0.417300	0.581000
C901	C90	0.608100	0.348700	0.607600
C911	C91	0.611400	0.387800	0.646700
C921	C92	0.245900	0.490700	0.251600
C931	C93	0.403400	0.537500	0.212400
C941	C94	0.292400	0.536500	0.179400
C951	C95	0.413900	0.383800	0.343300
C961	C96	0.408300	0.345900	0.383800
N11	N1	0.893200	0.761900	0.484200
N21	N2	0.709100	0.708100	0.484400
N31	N3	0.043600	0.868200	0.430700
N41	N4	0.035100	0.931600	0.364300
N51	N5	0.963800	0.932500	0.630100
N61	N6	0.969100	0.867300	0.565200
N71	N7	0.125200	0.007200	0.258900
N81	N8	0.309100	0.008200	0.204600
N91	N9	0.606800	0.238100	0.984200
N101	N10	0.790900	0.291900	0.984400
N111	N11	0.456400	0.131800	0.930700
N121	N12	0.464900	0.068400	0.864300
N131	N13	0.536200	0.067500	0.130100
N141	N14	0.530900	0.132700	0.065200
N151	N15	0.374800	0.992800	0.758900
N161	N16	0.190900	0.991800	0.704600
N171	N17	0.106800	0.261900	0.015800
N181	N18	0.290900	0.208100	0.015600
N191	N19	0.956400	0.368200	0.069300
N201	N20	0.964900	0.431600	0.135700
N211	N21	0.036200	0.432500	0.869900
N221	N22	0.030900	0.367300	0.934800
N231	N23	0.874800	0.507200	0.241100
N241	N24	0.690900	0.508200	0.295400
N251	N25	0.393200	0.738100	0.515800
N261	N26	0.209100	0.791900	0.515600
N271	N27	0.543600	0.631800	0.569300
N281	N28	0.535100	0.568400	0.635700
N291	N29	0.463800	0.567500	0.369900
N301	N30	0.469100	0.632700	0.434800
N311	N31	0.625200	0.492800	0.741100
N321	N32	0.809100	0.491800	0.795400
N331	N33	0.106800	0.238100	0.515800
N341	N34	0.290900	0.291900	0.515600
N351	N35	0.956400	0.131800	0.569300
N361	N36	0.964900	0.068400	0.635700
N371	N37	0.036200	0.067500	0.369900
N381	N38	0.030900	0.132700	0.434800
N391	N39	0.874800	0.992800	0.741100
N401	N40	0.690900	0.991800	0.795400
N411	N41	0.393200	0.761900	0.015800
N421	N42	0.209100	0.708100	0.015600
N431	N43	0.543600	0.868200	0.069300
N441	N44	0.535100	0.931600	0.135700
N451	N45	0.463800	0.932500	0.869900
N461	N46	0.469100	0.867300	0.934800
N471	N47	0.625200	0.007200	0.241100
N481	N48	0.809100	0.008200	0.295400
N491	N49	0.893200	0.738100	0.984200
N501	N50	0.709100	0.791900	0.984400
N511	N51	0.043600	0.631800	0.930700
N521	N52	0.035100	0.568400	0.864300
N531	N53	0.963800	0.567500	0.130100
N541	N54	0.969100	0.632700	0.065200
N551	N55	0.125200	0.492800	0.758900
N561	N56	0.309100	0.491800	0.704600
N571	N57	0.606800	0.261900	0.484200
N581	N58	0.790900	0.208100	0.484400
N591	N59	0.456400	0.368200	0.430700
N601	N60	0.464900	0.431600	0.364300
N611	N61	0.536200	0.432500	0.630100
N621	N62	0.530900	0.367300	0.565200
N631	N63	0.374800	0.507200	0.258900
N641	N64	0.190900	0.508200	0.204600
