data_VEJYUF02_clean_PM
_symmetry_space_group_name_H-M	'P1'
_cell_length_a	15.106900
_cell_length_b	15.348600
_cell_length_c	18.343000
_cell_angle_alpha	90.000000
_cell_angle_beta	90.000000
_cell_angle_gamma	90.000000
_symmetry_Int_Tables_number 1

loop_
_symmetry_equiv_pos_as_xyz
'x,y,z'

loop_
_atom_site_label
_atom_site_type_symbol
_atom_site_fract_x
_atom_site_fract_y
_atom_site_fract_z
Zn11	Zn1	0.861520	0.794350	0.591560
Zn21	Zn2	0.662940	0.487320	0.686700
Zn31	Zn3	0.138480	0.705650	0.091560
Zn41	Zn4	0.337060	0.012680	0.186700
Zn51	Zn5	0.361520	0.205650	0.908440
Zn61	Zn6	0.162940	0.512680	0.813300
Zn71	Zn7	0.638480	0.294350	0.408440
Zn81	Zn8	0.837060	0.987320	0.313300
Zn91	Zn9	0.138480	0.205650	0.408440
Zn101	Zn10	0.337060	0.512680	0.313300
Zn111	Zn11	0.861520	0.294350	0.908440
Zn121	Zn12	0.662940	0.987320	0.813300
Zn131	Zn13	0.638480	0.794350	0.091560
Zn141	Zn14	0.837060	0.487320	0.186700
Zn151	Zn15	0.361520	0.705650	0.591560
Zn161	Zn16	0.162940	0.012680	0.686700
H11	H1	0.718900	0.673900	0.653100
H21	H2	0.941800	0.599300	0.572900
H31	H3	0.860600	0.470900	0.613400
H41	H4	0.814500	0.933200	0.475600
H51	H5	0.947700	0.724800	0.442700
H61	H6	0.935700	0.802700	0.327700
H71	H7	0.016800	0.933800	0.595500
H81	H8	0.962400	0.761600	0.740200
H91	H9	0.071900	0.860900	0.790000
H101	H10	0.811000	0.894600	0.729000
H111	H11	0.574600	0.936700	0.660400
H121	H12	0.657200	0.864200	0.564200
H131	H13	0.281100	0.826100	0.153100
H141	H14	0.058200	0.900700	0.072900
H151	H15	0.139400	0.029100	0.113400
H161	H16	0.185500	0.566800	0.975600
H171	H17	0.052300	0.775200	0.942700
H181	H18	0.064300	0.697300	0.827700
H191	H19	0.983200	0.566200	0.095500
H201	H20	0.037600	0.738400	0.240200
H211	H21	0.928100	0.639100	0.290000
H221	H22	0.189000	0.605400	0.229000
H231	H23	0.425400	0.563300	0.160400
H241	H24	0.342800	0.635800	0.064200
H251	H25	0.218900	0.326100	0.846900
H261	H26	0.441800	0.400700	0.927100
H271	H27	0.360600	0.529100	0.886600
H281	H28	0.314500	0.066800	0.024400
H291	H29	0.447700	0.275200	0.057300
H301	H30	0.435700	0.197300	0.172300
H311	H31	0.516800	0.066200	0.904500
H321	H32	0.462400	0.238400	0.759800
H331	H33	0.571900	0.139100	0.710000
H341	H34	0.311000	0.105400	0.771000
H351	H35	0.074600	0.063300	0.839600
H361	H36	0.157200	0.135800	0.935800
H371	H37	0.781100	0.173900	0.346900
H381	H38	0.558200	0.099300	0.427100
H391	H39	0.639400	0.970900	0.386600
H401	H40	0.685500	0.433200	0.524400
H411	H41	0.552300	0.224800	0.557300
H421	H42	0.564300	0.302700	0.672300
H431	H43	0.483200	0.433800	0.404500
H441	H44	0.537600	0.261600	0.259800
H451	H45	0.428100	0.360900	0.210000
H461	H46	0.689000	0.394600	0.271000
H471	H47	0.925400	0.436700	0.339600
H481	H48	0.842800	0.364200	0.435800
H491	H49	0.281100	0.326100	0.346900
H501	H50	0.058200	0.400700	0.427100
H511	H51	0.139400	0.529100	0.386600
H521	H52	0.185500	0.066800	0.524400
H531	H53	0.052300	0.275200	0.557300
H541	H54	0.064300	0.197300	0.672300
H551	H55	0.983200	0.066200	0.404500
H561	H56	0.037600	0.238400	0.259800
H571	H57	0.928100	0.139100	0.210000
H581	H58	0.189000	0.105400	0.271000
H591	H59	0.425400	0.063300	0.339600
H601	H60	0.342800	0.135800	0.435800
H611	H61	0.718900	0.173900	0.846900
H621	H62	0.941800	0.099300	0.927100
H631	H63	0.860600	0.970900	0.886600
H641	H64	0.814500	0.433200	0.024400
H651	H65	0.947700	0.224800	0.057300
H661	H66	0.935700	0.302700	0.172300
H671	H67	0.016800	0.433800	0.904500
H681	H68	0.962400	0.261600	0.759800
H691	H69	0.071900	0.360900	0.710000
H701	H70	0.811000	0.394600	0.771000
H711	H71	0.574600	0.436700	0.839600
H721	H72	0.657200	0.364200	0.935800
H731	H73	0.781100	0.673900	0.153100
H741	H74	0.558200	0.599300	0.072900
H751	H75	0.639400	0.470900	0.113400
H761	H76	0.685500	0.933200	0.975600
H771	H77	0.552300	0.724800	0.942700
H781	H78	0.564300	0.802700	0.827700
H791	H79	0.483200	0.933800	0.095500
H801	H80	0.537600	0.761600	0.240200
H811	H81	0.428100	0.860900	0.290000
H821	H82	0.689000	0.894600	0.229000
H831	H83	0.925400	0.936700	0.160400
H841	H84	0.842800	0.864200	0.064200
H851	H85	0.218900	0.826100	0.653100
H861	H86	0.441800	0.900700	0.572900
H871	H87	0.360600	0.029100	0.613400
H881	H88	0.314500	0.566800	0.475600
H891	H89	0.447700	0.775200	0.442700
H901	H90	0.435700	0.697300	0.327700
H911	H91	0.516800	0.566200	0.595500
H921	H92	0.462400	0.738400	0.740200
H931	H93	0.571900	0.639100	0.790000
H941	H94	0.311000	0.605400	0.729000
H951	H95	0.074600	0.563300	0.660400
H961	H96	0.157200	0.635800	0.564200
C11	C1	0.765900	0.638600	0.638900
C21	C2	0.886500	0.599600	0.595200
C31	C3	0.841400	0.528200	0.617400
C41	C4	0.848000	0.890400	0.452600
C51	C5	0.918800	0.777700	0.436100
C61	C6	0.912600	0.821000	0.372200
C71	C7	0.015700	0.903400	0.639400
C81	C8	0.985400	0.810200	0.716600
C91	C9	0.047300	0.864700	0.743600
C101	C10	0.761500	0.896700	0.698900
C111	C11	0.633900	0.920900	0.662600
C121	C12	0.679200	0.878300	0.610100
C131	C13	0.234100	0.861400	0.138900
C141	C14	0.113500	0.900400	0.095200
C151	C15	0.158600	0.971800	0.117400
C161	C16	0.152000	0.609600	0.952600
C171	C17	0.081200	0.722300	0.936100
C181	C18	0.087400	0.679000	0.872200
C191	C19	0.984300	0.596600	0.139400
C201	C20	0.014600	0.689800	0.216600
C211	C21	0.952700	0.635300	0.243600
C221	C22	0.238500	0.603300	0.198900
C231	C23	0.366100	0.579100	0.162600
C241	C24	0.320800	0.621700	0.110100
C251	C25	0.265900	0.361400	0.861100
C261	C26	0.386500	0.400400	0.904800
C271	C27	0.341400	0.471800	0.882600
C281	C28	0.348000	0.109600	0.047400
C291	C29	0.418800	0.222300	0.063900
C301	C30	0.412600	0.179000	0.127800
C311	C31	0.515700	0.096600	0.860600
C321	C32	0.485400	0.189800	0.783400
C331	C33	0.547300	0.135300	0.756400
C341	C34	0.261500	0.103300	0.801100
C351	C35	0.133900	0.079100	0.837400
C361	C36	0.179200	0.121700	0.889900
C371	C37	0.734100	0.138600	0.361100
C381	C38	0.613500	0.099600	0.404800
C391	C39	0.658600	0.028200	0.382600
C401	C40	0.652000	0.390400	0.547400
C411	C41	0.581200	0.277700	0.563900
C421	C42	0.587400	0.321000	0.627800
C431	C43	0.484300	0.403400	0.360600
C441	C44	0.514600	0.310200	0.283400
C451	C45	0.452700	0.364700	0.256400
C461	C46	0.738500	0.396700	0.301100
C471	C47	0.866100	0.420900	0.337400
C481	C48	0.820800	0.378300	0.389900
C491	C49	0.234100	0.361400	0.361100
C501	C50	0.113500	0.400400	0.404800
C511	C51	0.158600	0.471800	0.382600
C521	C52	0.152000	0.109600	0.547400
C531	C53	0.081200	0.222300	0.563900
C541	C54	0.087400	0.179000	0.627800
C551	C55	0.984300	0.096600	0.360600
C561	C56	0.014600	0.189800	0.283400
C571	C57	0.952700	0.135300	0.256400
C581	C58	0.238500	0.103300	0.301100
C591	C59	0.366100	0.079100	0.337400
C601	C60	0.320800	0.121700	0.389900
C611	C61	0.765900	0.138600	0.861100
C621	C62	0.886500	0.099600	0.904800
C631	C63	0.841400	0.028200	0.882600
C641	C64	0.848000	0.390400	0.047400
C651	C65	0.918800	0.277700	0.063900
C661	C66	0.912600	0.321000	0.127800
C671	C67	0.015700	0.403400	0.860600
C681	C68	0.985400	0.310200	0.783400
C691	C69	0.047300	0.364700	0.756400
C701	C70	0.761500	0.396700	0.801100
C711	C71	0.633900	0.420900	0.837400
C721	C72	0.679200	0.378300	0.889900
C731	C73	0.734100	0.638600	0.138900
C741	C74	0.613500	0.599600	0.095200
C751	C75	0.658600	0.528200	0.117400
C761	C76	0.652000	0.890400	0.952600
C771	C77	0.581200	0.777700	0.936100
C781	C78	0.587400	0.821000	0.872200
C791	C79	0.484300	0.903400	0.139400
C801	C80	0.514600	0.810200	0.216600
C811	C81	0.452700	0.864700	0.243600
C821	C82	0.738500	0.896700	0.198900
C831	C83	0.866100	0.920900	0.162600
C841	C84	0.820800	0.878300	0.110100
C851	C85	0.265900	0.861400	0.638900
C861	C86	0.386500	0.900400	0.595200
C871	C87	0.341400	0.971800	0.617400
C881	C88	0.348000	0.609600	0.452600
C891	C89	0.418800	0.722300	0.436100
C901	C90	0.412600	0.679000	0.372200
C911	C91	0.515700	0.596600	0.639400
C921	C92	0.485400	0.689800	0.716600
C931	C93	0.547300	0.635300	0.743600
C941	C94	0.261500	0.603300	0.698900
C951	C95	0.133900	0.579100	0.662600
C961	C96	0.179200	0.621700	0.610100
N11	N1	0.765600	0.553900	0.646200
N21	N2	0.839200	0.669400	0.609900
N31	N3	0.869000	0.894200	0.383500
N41	N4	0.877500	0.821000	0.487300
N51	N5	0.066900	0.924100	0.694700
N61	N6	0.963100	0.837000	0.650800
N71	N7	0.687300	0.935600	0.717600
N81	N8	0.759400	0.860500	0.634000
N91	N9	0.234400	0.946100	0.146200
N101	N10	0.160800	0.830600	0.109900
N111	N11	0.131000	0.605800	0.883500
N121	N12	0.122500	0.679000	0.987300
N131	N13	0.933100	0.575900	0.194700
N141	N14	0.036900	0.663000	0.150800
N151	N15	0.312700	0.564400	0.217600
N161	N16	0.240600	0.639500	0.134000
N171	N17	0.265600	0.446100	0.853800
N181	N18	0.339200	0.330600	0.890100
N191	N19	0.369000	0.105800	0.116500
N201	N20	0.377500	0.179000	0.012700
N211	N21	0.566900	0.075900	0.805300
N221	N22	0.463100	0.163000	0.849200
N231	N23	0.187300	0.064400	0.782400
N241	N24	0.259400	0.139500	0.866000
N251	N25	0.734400	0.053900	0.353800
N261	N26	0.660800	0.169400	0.390100
N271	N27	0.631000	0.394200	0.616500
N281	N28	0.622500	0.321000	0.512700
N291	N29	0.433100	0.424100	0.305300
N301	N30	0.536900	0.337000	0.349200
N311	N31	0.812700	0.435600	0.282400
N321	N32	0.740600	0.360500	0.366000
N331	N33	0.234400	0.446100	0.353800
N341	N34	0.160800	0.330600	0.390100
N351	N35	0.131000	0.105800	0.616500
N361	N36	0.122500	0.179000	0.512700
N371	N37	0.933100	0.075900	0.305300
N381	N38	0.036900	0.163000	0.349200
N391	N39	0.312700	0.064400	0.282400
N401	N40	0.240600	0.139500	0.366000
N411	N41	0.765600	0.053900	0.853800
N421	N42	0.839200	0.169400	0.890100
N431	N43	0.869000	0.394200	0.116500
N441	N44	0.877500	0.321000	0.012700
N451	N45	0.066900	0.424100	0.805300
N461	N46	0.963100	0.337000	0.849200
N471	N47	0.687300	0.435600	0.782400
N481	N48	0.759400	0.360500	0.866000
N491	N49	0.734400	0.553900	0.146200
N501	N50	0.660800	0.669400	0.109900
N511	N51	0.631000	0.894200	0.883500
N521	N52	0.622500	0.821000	0.987300
N531	N53	0.433100	0.924100	0.194700
N541	N54	0.536900	0.837000	0.150800
N551	N55	0.812700	0.935600	0.217600
N561	N56	0.740600	0.860500	0.134000
N571	N57	0.265600	0.946100	0.646200
N581	N58	0.339200	0.830600	0.609900
N591	N59	0.369000	0.605800	0.383500
N601	N60	0.377500	0.679000	0.487300
N611	N61	0.566900	0.575900	0.694700
N621	N62	0.463100	0.663000	0.650800
N631	N63	0.187300	0.564400	0.717600
N641	N64	0.259400	0.639500	0.634000
