data_VELVIS_clean_PM
_symmetry_space_group_name_H-M	'P1'
_cell_length_a	22.989000
_cell_length_b	22.989000
_cell_length_c	15.763000
_cell_angle_alpha	90.000000
_cell_angle_beta	90.000000
_cell_angle_gamma	120.000000
_symmetry_Int_Tables_number 1

loop_
_symmetry_equiv_pos_as_xyz
'x,y,z'

loop_
_atom_site_label
_atom_site_type_symbol
_atom_site_fract_x
_atom_site_fract_y
_atom_site_fract_z
C11	C1	0.699500	0.028500	0.176300
H11	H1	0.738200	0.070300	0.172000
C21	C2	0.608800	0.945200	0.226400
C31	C3	0.552900	0.901400	0.272200
H21	H2	0.543600	0.913100	0.324800
C41	C4	0.511700	0.839600	0.237000
H31	H3	0.473800	0.808700	0.266700
C51	C5	0.525100	0.821500	0.156300
H41	H4	0.496000	0.779000	0.134500
C61	C6	0.622200	0.927400	0.146300
C71	C7	0.580000	0.865400	0.110100
H51	H5	0.588600	0.854100	0.056700
C81	C8	0.808200	0.201200	0.339800
H61	H6	0.824400	0.189700	0.387100
C91	C9	0.803400	0.257000	0.236100
C101	C10	0.814000	0.303900	0.170100
H71	H7	0.854400	0.344000	0.165800
C111	C11	0.744300	0.197200	0.240000
C121	C12	0.690500	0.179700	0.180200
H81	H8	0.650500	0.138900	0.183200
C131	C13	0.763700	0.288600	0.113800
H91	H9	0.770200	0.319400	0.071400
C141	C14	0.701700	0.227100	0.117500
H101	H10	0.668300	0.218400	0.078000
N11	N1	0.658900	0.011300	0.243300
N21	N2	0.748000	0.160400	0.309200
N31	N3	0.681200	0.981900	0.115200
N41	N4	0.844500	0.259000	0.300600
Zn11	Zn1	0.671900	0.070470	0.341600
C151	C15	0.366170	0.361830	0.509630
H111	H11	0.404870	0.403630	0.505330
C161	C16	0.275470	0.278530	0.559730
C171	C17	0.219570	0.234730	0.605530
H121	H12	0.210270	0.246430	0.658130
C181	C18	0.178370	0.172930	0.570330
H131	H13	0.140470	0.142030	0.600030
C191	C19	0.191770	0.154830	0.489630
H141	H14	0.162670	0.112330	0.467830
C201	C20	0.288870	0.260730	0.479630
C211	C21	0.246670	0.198730	0.443430
H151	H15	0.255270	0.187430	0.390030
C221	C22	0.474870	0.534530	0.673130
H161	H16	0.491070	0.523030	0.720430
C231	C23	0.470070	0.590330	0.569430
C241	C24	0.480670	0.637230	0.503430
H171	H17	0.521070	0.677330	0.499130
C251	C25	0.410970	0.530530	0.573330
C261	C26	0.357170	0.513030	0.513530
H181	H18	0.317170	0.472230	0.516530
C271	C27	0.430370	0.621930	0.447130
H191	H19	0.436870	0.652730	0.404730
C281	C28	0.368370	0.560430	0.450830
H201	H20	0.334970	0.551730	0.411330
N51	N5	0.325570	0.344630	0.576630
N61	N6	0.414670	0.493730	0.642530
N71	N7	0.347870	0.315230	0.448530
N81	N8	0.511170	0.592330	0.633930
Zn21	Zn2	0.338570	0.403800	0.674930
C291	C29	0.032830	0.695170	0.842970
H211	H21	0.071530	0.736970	0.838670
C301	C30	0.942130	0.611870	0.893070
C311	C31	0.886230	0.568070	0.938870
H221	H22	0.876930	0.579770	0.991470
C321	C32	0.845030	0.506270	0.903670
H231	H23	0.807130	0.475370	0.933370
C331	C33	0.858430	0.488170	0.822970
H241	H24	0.829330	0.445670	0.801170
C341	C34	0.955530	0.594070	0.812970
C351	C35	0.913330	0.532070	0.776770
H251	H25	0.921930	0.520770	0.723370
C361	C36	0.141530	0.867870	0.006470
H261	H26	0.157730	0.856370	0.053770
C371	C37	0.136730	0.923670	0.902770
C381	C38	0.147330	0.970570	0.836770
H271	H27	0.187730	0.010670	0.832470
C391	C39	0.077630	0.863870	0.906670
C401	C40	0.023830	0.846370	0.846870
H281	H28	0.983830	0.805570	0.849870
C411	C41	0.097030	0.955270	0.780470
H291	H29	0.103530	0.986070	0.738070
C421	C42	0.035030	0.893770	0.784170
H301	H30	0.001630	0.885070	0.744670
N91	N9	0.992230	0.677970	0.909970
N101	N10	0.081330	0.827070	0.975870
N111	N11	0.014530	0.648570	0.781870
N121	N12	0.177830	0.925670	0.967270
Zn31	Zn3	0.005230	0.737140	0.008270
C431	C43	0.971500	0.671000	0.176300
H311	H31	0.929700	0.667900	0.172000
C441	C44	0.054800	0.663600	0.226400
C451	C45	0.098600	0.651500	0.272200
H321	H32	0.086900	0.630500	0.324800
C461	C46	0.160400	0.672100	0.237000
H331	H33	0.191300	0.665100	0.266700
C471	C47	0.178500	0.703600	0.156300
H341	H34	0.221000	0.717000	0.134500
C481	C48	0.072600	0.694800	0.146300
C491	C49	0.134600	0.714600	0.110100
H351	H35	0.145900	0.734500	0.056700
C501	C50	0.798800	0.607000	0.339800
H361	H36	0.810300	0.634700	0.387100
C511	C51	0.743000	0.546400	0.236100
C521	C52	0.696100	0.510100	0.170100
H371	H37	0.656000	0.510400	0.165800
C531	C53	0.802800	0.547100	0.240000
C541	C54	0.820300	0.510800	0.180200
H381	H38	0.861100	0.511600	0.183200
C551	C55	0.711400	0.475100	0.113800
H391	H39	0.680600	0.450800	0.071400
C561	C56	0.772900	0.474600	0.117500
H401	H40	0.781600	0.449900	0.078000
N131	N13	0.988700	0.647600	0.243300
N141	N14	0.839600	0.587600	0.309200
N151	N15	0.018100	0.699300	0.115200
N161	N16	0.741000	0.585500	0.300600
Zn41	Zn4	0.929530	0.601430	0.341600
C571	C57	0.638170	0.004330	0.509630
H411	H41	0.596370	0.001230	0.505330
C581	C58	0.721470	0.996930	0.559730
C591	C59	0.765270	0.984830	0.605530
H421	H42	0.753570	0.963830	0.658130
C601	C60	0.827070	0.005430	0.570330
H431	H43	0.857970	0.998430	0.600030
C611	C61	0.845170	0.036930	0.489630
H441	H44	0.887670	0.050330	0.467830
C621	C62	0.739270	0.028130	0.479630
C631	C63	0.801270	0.047930	0.443430
H451	H45	0.812570	0.067830	0.390030
C641	C64	0.465470	0.940330	0.673130
H461	H46	0.476970	0.968030	0.720430
C651	C65	0.409670	0.879730	0.569430
C661	C66	0.362770	0.843430	0.503430
H471	H47	0.322670	0.843730	0.499130
C671	C67	0.469470	0.880430	0.573330
C681	C68	0.486970	0.844130	0.513530
H481	H48	0.527770	0.844930	0.516530
C691	C69	0.378070	0.808430	0.447130
H491	H49	0.347270	0.784130	0.404730
C701	C70	0.439570	0.807930	0.450830
H501	H50	0.448270	0.783230	0.411330
N171	N17	0.655370	0.980930	0.576630
N181	N18	0.506270	0.920930	0.642530
N191	N19	0.684770	0.032630	0.448530
N201	N20	0.407670	0.918830	0.633930
Zn51	Zn5	0.596200	0.934760	0.674930
C711	C71	0.304830	0.337670	0.842970
H511	H51	0.263030	0.334570	0.838670
C721	C72	0.388130	0.330270	0.893070
C731	C73	0.431930	0.318170	0.938870
H521	H52	0.420230	0.297170	0.991470
C741	C74	0.493730	0.338770	0.903670
H531	H53	0.524630	0.331770	0.933370
C751	C75	0.511830	0.370270	0.822970
H541	H54	0.554330	0.383670	0.801170
C761	C76	0.405930	0.361470	0.812970
C771	C77	0.467930	0.381270	0.776770
H551	H55	0.479230	0.401170	0.723370
C781	C78	0.132130	0.273670	0.006470
H561	H56	0.143630	0.301370	0.053770
C791	C79	0.076330	0.213070	0.902770
C801	C80	0.029430	0.176770	0.836770
H571	H57	0.989330	0.177070	0.832470
C811	C81	0.136130	0.213770	0.906670
C821	C82	0.153630	0.177470	0.846870
H581	H58	0.194430	0.178270	0.849870
C831	C83	0.044730	0.141770	0.780470
H591	H59	0.013930	0.117470	0.738070
C841	C84	0.106230	0.141270	0.784170
H601	H60	0.114930	0.116570	0.744670
N211	N21	0.322030	0.314270	0.909970
N221	N22	0.172930	0.254270	0.975870
N231	N23	0.351430	0.365970	0.781870
N241	N24	0.074330	0.252170	0.967270
Zn61	Zn6	0.262860	0.268100	0.008270
C851	C85	0.329000	0.300500	0.176300
H611	H61	0.332100	0.261800	0.172000
C861	C86	0.336400	0.391200	0.226400
C871	C87	0.348500	0.447100	0.272200
H621	H62	0.369500	0.456400	0.324800
C881	C88	0.327900	0.488300	0.237000
H631	H63	0.334900	0.526200	0.266700
C891	C89	0.296400	0.474900	0.156300
H641	H64	0.283000	0.504000	0.134500
C901	C90	0.305200	0.377800	0.146300
C911	C91	0.285400	0.420000	0.110100
H651	H65	0.265500	0.411400	0.056700
C921	C92	0.393000	0.191800	0.339800
H661	H66	0.365300	0.175600	0.387100
C931	C93	0.453600	0.196600	0.236100
C941	C94	0.489900	0.186000	0.170100
H671	H67	0.489600	0.145600	0.165800
C951	C95	0.452900	0.255700	0.240000
C961	C96	0.489200	0.309500	0.180200
H681	H68	0.488400	0.349500	0.183200
C971	C97	0.524900	0.236300	0.113800
H691	H69	0.549200	0.229800	0.071400
C981	C98	0.525400	0.298300	0.117500
H701	H70	0.550100	0.331700	0.078000
N251	N25	0.352400	0.341100	0.243300
N261	N26	0.412400	0.252000	0.309200
N271	N27	0.300700	0.318800	0.115200
N281	N28	0.414500	0.155500	0.300600
Zn71	Zn7	0.398570	0.328100	0.341600
C991	C99	0.995670	0.633830	0.509630
H711	H71	0.998770	0.595130	0.505330
C1001	C100	0.003070	0.724530	0.559730
C1011	C101	0.015170	0.780430	0.605530
H721	H72	0.036170	0.789730	0.658130
C1021	C102	0.994570	0.821630	0.570330
H731	H73	0.001570	0.859530	0.600030
C1031	C103	0.963070	0.808230	0.489630
H741	H74	0.949670	0.837330	0.467830
C1041	C104	0.971870	0.711130	0.479630
C1051	C105	0.952070	0.753330	0.443430
H751	H75	0.932170	0.744730	0.390030
C1061	C106	0.059670	0.525130	0.673130
H761	H76	0.031970	0.508930	0.720430
C1071	C107	0.120270	0.529930	0.569430
C1081	C108	0.156570	0.519330	0.503430
H771	H77	0.156270	0.478930	0.499130
C1091	C109	0.119570	0.589030	0.573330
C1101	C110	0.155870	0.642830	0.513530
H781	H78	0.155070	0.682830	0.516530
C1111	C111	0.191570	0.569630	0.447130
H791	H79	0.215870	0.563130	0.404730
C1121	C112	0.192070	0.631630	0.450830
H801	H80	0.216770	0.665030	0.411330
N291	N29	0.019070	0.674430	0.576630
N301	N30	0.079070	0.585330	0.642530
N311	N31	0.967370	0.652130	0.448530
N321	N32	0.081170	0.488830	0.633930
Zn81	Zn8	0.065240	0.661430	0.674930
C1131	C113	0.662330	0.967170	0.842970
H811	H81	0.665430	0.928470	0.838670
C1141	C114	0.669730	0.057870	0.893070
C1151	C115	0.681830	0.113770	0.938870
H821	H82	0.702830	0.123070	0.991470
C1161	C116	0.661230	0.154970	0.903670
H831	H83	0.668230	0.192870	0.933370
C1171	C117	0.629730	0.141570	0.822970
H841	H84	0.616330	0.170670	0.801170
C1181	C118	0.638530	0.044470	0.812970
C1191	C119	0.618730	0.086670	0.776770
H851	H85	0.598830	0.078070	0.723370
C1201	C120	0.726330	0.858470	0.006470
H861	H86	0.698630	0.842270	0.053770
C1211	C121	0.786930	0.863270	0.902770
C1221	C122	0.823230	0.852670	0.836770
H871	H87	0.822930	0.812270	0.832470
C1231	C123	0.786230	0.922370	0.906670
C1241	C124	0.822530	0.976170	0.846870
H881	H88	0.821730	0.016170	0.849870
C1251	C125	0.858230	0.902970	0.780470
H891	H89	0.882530	0.896470	0.738070
C1261	C126	0.858730	0.964970	0.784170
H901	H90	0.883430	0.998370	0.744670
N331	N33	0.685730	0.007770	0.909970
N341	N34	0.745730	0.918670	0.975870
N351	N35	0.634030	0.985470	0.781870
N361	N36	0.747830	0.822170	0.967270
Zn91	Zn9	0.731900	0.994770	0.008270
C1271	C127	0.300500	0.971500	0.823700
H911	H91	0.261800	0.929700	0.828000
C1281	C128	0.391200	0.054800	0.773600
C1291	C129	0.447100	0.098600	0.727800
H921	H92	0.456400	0.086900	0.675200
C1301	C130	0.488300	0.160400	0.763000
H931	H93	0.526200	0.191300	0.733300
C1311	C131	0.474900	0.178500	0.843700
H941	H94	0.504000	0.221000	0.865500
C1321	C132	0.377800	0.072600	0.853700
C1331	C133	0.420000	0.134600	0.889900
H951	H95	0.411400	0.145900	0.943300
C1341	C134	0.191800	0.798800	0.660200
H961	H96	0.175600	0.810300	0.612900
C1351	C135	0.196600	0.743000	0.763900
C1361	C136	0.186000	0.696100	0.829900
H971	H97	0.145600	0.656000	0.834200
C1371	C137	0.255700	0.802800	0.760000
C1381	C138	0.309500	0.820300	0.819800
H981	H98	0.349500	0.861100	0.816800
C1391	C139	0.236300	0.711400	0.886200
H991	H99	0.229800	0.680600	0.928600
C1401	C140	0.298300	0.772900	0.882500
H1001	H100	0.331700	0.781600	0.922000
N371	N37	0.341100	0.988700	0.756700
N381	N38	0.252000	0.839600	0.690800
N391	N39	0.318800	0.018100	0.884800
N401	N40	0.155500	0.741000	0.699400
Zn101	Zn10	0.328100	0.929530	0.658400
C1411	C141	0.967170	0.304830	0.157030
H1011	H101	0.928470	0.263030	0.161330
C1421	C142	0.057870	0.388130	0.106930
C1431	C143	0.113770	0.431930	0.061130
H1021	H102	0.123070	0.420230	0.008530
C1441	C144	0.154970	0.493730	0.096330
H1031	H103	0.192870	0.524630	0.066630
C1451	C145	0.141570	0.511830	0.177030
H1041	H104	0.170670	0.554330	0.198830
C1461	C146	0.044470	0.405930	0.187030
C1471	C147	0.086670	0.467930	0.223230
H1051	H105	0.078070	0.479230	0.276630
C1481	C148	0.858470	0.132130	0.993530
H1061	H106	0.842270	0.143630	0.946230
C1491	C149	0.863270	0.076330	0.097230
C1501	C150	0.852670	0.029430	0.163230
H1071	H107	0.812270	0.989330	0.167530
C1511	C151	0.922370	0.136130	0.093330
C1521	C152	0.976170	0.153630	0.153130
H1081	H108	0.016170	0.194430	0.150130
C1531	C153	0.902970	0.044730	0.219530
H1091	H109	0.896470	0.013930	0.261930
C1541	C154	0.964970	0.106230	0.215830
H1101	H110	0.998370	0.114930	0.255330
N411	N41	0.007770	0.322030	0.090030
N421	N42	0.918670	0.172930	0.024130
N431	N43	0.985470	0.351430	0.218130
N441	N44	0.822170	0.074330	0.032730
Zn111	Zn11	0.994770	0.262860	0.991730
C1551	C155	0.633830	0.638170	0.490370
H1111	H111	0.595130	0.596370	0.494670
C1561	C156	0.724530	0.721470	0.440270
C1571	C157	0.780430	0.765270	0.394470
H1121	H112	0.789730	0.753570	0.341870
C1581	C158	0.821630	0.827070	0.429670
H1131	H113	0.859530	0.857970	0.399970
C1591	C159	0.808230	0.845170	0.510370
H1141	H114	0.837330	0.887670	0.532170
C1601	C160	0.711130	0.739270	0.520370
C1611	C161	0.753330	0.801270	0.556570
H1151	H115	0.744730	0.812570	0.609970
C1621	C162	0.525130	0.465470	0.326870
H1161	H116	0.508930	0.476970	0.279570
C1631	C163	0.529930	0.409670	0.430570
C1641	C164	0.519330	0.362770	0.496570
H1171	H117	0.478930	0.322670	0.500870
C1651	C165	0.589030	0.469470	0.426670
C1661	C166	0.642830	0.486970	0.486470
H1181	H118	0.682830	0.527770	0.483470
C1671	C167	0.569630	0.378070	0.552870
H1191	H119	0.563130	0.347270	0.595270
C1681	C168	0.631630	0.439570	0.549170
H1201	H120	0.665030	0.448270	0.588670
N451	N45	0.674430	0.655370	0.423370
N461	N46	0.585330	0.506270	0.357470
N471	N47	0.652130	0.684770	0.551470
N481	N48	0.488830	0.407670	0.366070
Zn121	Zn12	0.661430	0.596200	0.325070
C1691	C169	0.028500	0.329000	0.823700
H1211	H121	0.070300	0.332100	0.828000
C1701	C170	0.945200	0.336400	0.773600
C1711	C171	0.901400	0.348500	0.727800
H1221	H122	0.913100	0.369500	0.675200
C1721	C172	0.839600	0.327900	0.763000
H1231	H123	0.808700	0.334900	0.733300
C1731	C173	0.821500	0.296400	0.843700
H1241	H124	0.779000	0.283000	0.865500
C1741	C174	0.927400	0.305200	0.853700
C1751	C175	0.865400	0.285400	0.889900
H1251	H125	0.854100	0.265500	0.943300
C1761	C176	0.201200	0.393000	0.660200
H1261	H126	0.189700	0.365300	0.612900
C1771	C177	0.257000	0.453600	0.763900
C1781	C178	0.303900	0.489900	0.829900
H1271	H127	0.344000	0.489600	0.834200
C1791	C179	0.197200	0.452900	0.760000
C1801	C180	0.179700	0.489200	0.819800
H1281	H128	0.138900	0.488400	0.816800
C1811	C181	0.288600	0.524900	0.886200
H1291	H129	0.319400	0.549200	0.928600
C1821	C182	0.227100	0.525400	0.882500
H1301	H130	0.218400	0.550100	0.922000
N491	N49	0.011300	0.352400	0.756700
N501	N50	0.160400	0.412400	0.690800
N511	N51	0.981900	0.300700	0.884800
N521	N52	0.259000	0.414500	0.699400
Zn131	Zn13	0.070470	0.398570	0.658400
C1831	C183	0.695170	0.662330	0.157030
H1311	H131	0.736970	0.665430	0.161330
C1841	C184	0.611870	0.669730	0.106930
C1851	C185	0.568070	0.681830	0.061130
H1321	H132	0.579770	0.702830	0.008530
C1861	C186	0.506270	0.661230	0.096330
H1331	H133	0.475370	0.668230	0.066630
C1871	C187	0.488170	0.629730	0.177030
H1341	H134	0.445670	0.616330	0.198830
C1881	C188	0.594070	0.638530	0.187030
C1891	C189	0.532070	0.618730	0.223230
H1351	H135	0.520770	0.598830	0.276630
C1901	C190	0.867870	0.726330	0.993530
H1361	H136	0.856370	0.698630	0.946230
C1911	C191	0.923670	0.786930	0.097230
C1921	C192	0.970570	0.823230	0.163230
H1371	H137	0.010670	0.822930	0.167530
C1931	C193	0.863870	0.786230	0.093330
C1941	C194	0.846370	0.822530	0.153130
H1381	H138	0.805570	0.821730	0.150130
C1951	C195	0.955270	0.858230	0.219530
H1391	H139	0.986070	0.882530	0.261930
C1961	C196	0.893770	0.858730	0.215830
H1401	H140	0.885070	0.883430	0.255330
N531	N53	0.677970	0.685730	0.090030
N541	N54	0.827070	0.745730	0.024130
N551	N55	0.648570	0.634030	0.218130
N561	N56	0.925670	0.747830	0.032730
Zn141	Zn14	0.737140	0.731900	0.991730
C1971	C197	0.361830	0.995670	0.490370
H1411	H141	0.403630	0.998770	0.494670
C1981	C198	0.278530	0.003070	0.440270
C1991	C199	0.234730	0.015170	0.394470
H1421	H142	0.246430	0.036170	0.341870
C2001	C200	0.172930	0.994570	0.429670
H1431	H143	0.142030	0.001570	0.399970
C2011	C201	0.154830	0.963070	0.510370
H1441	H144	0.112330	0.949670	0.532170
C2021	C202	0.260730	0.971870	0.520370
C2031	C203	0.198730	0.952070	0.556570
H1451	H145	0.187430	0.932170	0.609970
C2041	C204	0.534530	0.059670	0.326870
H1461	H146	0.523030	0.031970	0.279570
C2051	C205	0.590330	0.120270	0.430570
C2061	C206	0.637230	0.156570	0.496570
H1471	H147	0.677330	0.156270	0.500870
C2071	C207	0.530530	0.119570	0.426670
C2081	C208	0.513030	0.155870	0.486470
H1481	H148	0.472230	0.155070	0.483470
C2091	C209	0.621930	0.191570	0.552870
H1491	H149	0.652730	0.215870	0.595270
C2101	C210	0.560430	0.192070	0.549170
H1501	H150	0.551730	0.216770	0.588670
N571	N57	0.344630	0.019070	0.423370
N581	N58	0.493730	0.079070	0.357470
N591	N59	0.315230	0.967370	0.551470
N601	N60	0.592330	0.081170	0.366070
Zn151	Zn15	0.403800	0.065240	0.325070
C2111	C211	0.671000	0.699500	0.823700
H1511	H151	0.667900	0.738200	0.828000
C2121	C212	0.663600	0.608800	0.773600
C2131	C213	0.651500	0.552900	0.727800
H1521	H152	0.630500	0.543600	0.675200
C2141	C214	0.672100	0.511700	0.763000
H1531	H153	0.665100	0.473800	0.733300
C2151	C215	0.703600	0.525100	0.843700
H1541	H154	0.717000	0.496000	0.865500
C2161	C216	0.694800	0.622200	0.853700
C2171	C217	0.714600	0.580000	0.889900
H1551	H155	0.734500	0.588600	0.943300
C2181	C218	0.607000	0.808200	0.660200
H1561	H156	0.634700	0.824400	0.612900
C2191	C219	0.546400	0.803400	0.763900
C2201	C220	0.510100	0.814000	0.829900
H1571	H157	0.510400	0.854400	0.834200
C2211	C221	0.547100	0.744300	0.760000
C2221	C222	0.510800	0.690500	0.819800
H1581	H158	0.511600	0.650500	0.816800
C2231	C223	0.475100	0.763700	0.886200
H1591	H159	0.450800	0.770200	0.928600
C2241	C224	0.474600	0.701700	0.882500
H1601	H160	0.449900	0.668300	0.922000
N611	N61	0.647600	0.658900	0.756700
N621	N62	0.587600	0.748000	0.690800
N631	N63	0.699300	0.681200	0.884800
N641	N64	0.585500	0.844500	0.699400
Zn161	Zn16	0.601430	0.671900	0.658400
C2251	C225	0.337670	0.032830	0.157030
H1611	H161	0.334570	0.071530	0.161330
C2261	C226	0.330270	0.942130	0.106930
C2271	C227	0.318170	0.886230	0.061130
H1621	H162	0.297170	0.876930	0.008530
C2281	C228	0.338770	0.845030	0.096330
H1631	H163	0.331770	0.807130	0.066630
C2291	C229	0.370270	0.858430	0.177030
H1641	H164	0.383670	0.829330	0.198830
C2301	C230	0.361470	0.955530	0.187030
C2311	C231	0.381270	0.913330	0.223230
H1651	H165	0.401170	0.921930	0.276630
C2321	C232	0.273670	0.141530	0.993530
H1661	H166	0.301370	0.157730	0.946230
C2331	C233	0.213070	0.136730	0.097230
C2341	C234	0.176770	0.147330	0.163230
H1671	H167	0.177070	0.187730	0.167530
C2351	C235	0.213770	0.077630	0.093330
C2361	C236	0.177470	0.023830	0.153130
H1681	H168	0.178270	0.983830	0.150130
C2371	C237	0.141770	0.097030	0.219530
H1691	H169	0.117470	0.103530	0.261930
C2381	C238	0.141270	0.035030	0.215830
H1701	H170	0.116570	0.001630	0.255330
N651	N65	0.314270	0.992230	0.090030
N661	N66	0.254270	0.081330	0.024130
N671	N67	0.365970	0.014530	0.218130
N681	N68	0.252170	0.177830	0.032730
Zn171	Zn17	0.268100	0.005230	0.991730
C2391	C239	0.004330	0.366170	0.490370
H1711	H171	0.001230	0.404870	0.494670
C2401	C240	0.996930	0.275470	0.440270
C2411	C241	0.984830	0.219570	0.394470
H1721	H172	0.963830	0.210270	0.341870
C2421	C242	0.005430	0.178370	0.429670
H1731	H173	0.998430	0.140470	0.399970
C2431	C243	0.036930	0.191770	0.510370
H1741	H174	0.050330	0.162670	0.532170
C2441	C244	0.028130	0.288870	0.520370
C2451	C245	0.047930	0.246670	0.556570
H1751	H175	0.067830	0.255270	0.609970
C2461	C246	0.940330	0.474870	0.326870
H1761	H176	0.968030	0.491070	0.279570
C2471	C247	0.879730	0.470070	0.430570
C2481	C248	0.843430	0.480670	0.496570
H1771	H177	0.843730	0.521070	0.500870
C2491	C249	0.880430	0.410970	0.426670
C2501	C250	0.844130	0.357170	0.486470
H1781	H178	0.844930	0.317170	0.483470
C2511	C251	0.808430	0.430370	0.552870
H1791	H179	0.784130	0.436870	0.595270
C2521	C252	0.807930	0.368370	0.549170
H1801	H180	0.783230	0.334970	0.588670
N691	N69	0.980930	0.325570	0.423370
N701	N70	0.920930	0.414670	0.357470
N711	N71	0.032630	0.347870	0.551470
N721	N72	0.918830	0.511170	0.366070
Zn181	Zn18	0.934760	0.338570	0.325070
