data_VELVEO_clean_PM
_symmetry_space_group_name_H-M	'P1'
_cell_length_a	7.264200
_cell_length_b	15.020400
_cell_length_c	8.828600
_cell_angle_alpha	90.000000
_cell_angle_beta	90.000000
_cell_angle_gamma	90.000000
_symmetry_Int_Tables_number 1

loop_
_symmetry_equiv_pos_as_xyz
'x,y,z'

loop_
_atom_site_label
_atom_site_type_symbol
_atom_site_fract_x
_atom_site_fract_y
_atom_site_fract_z
H11	H1	0.250000	0.454500	0.679900
O11	O1	0.381900	0.415550	0.324900
O21	O2	0.088100	0.383900	0.379900
O31	O3	0.386000	0.294640	0.099500
H21	H2	0.484400	0.306900	0.147300
C11	C1	0.235700	0.371400	0.311800
C21	C2	0.235700	0.292600	0.202500
H31	H3	0.121300	0.294500	0.143800
H41	H4	0.250000	0.545500	0.679900
O41	O4	0.118100	0.584450	0.324900
O51	O5	0.411900	0.616100	0.379900
O61	O6	0.114000	0.705360	0.099500
H51	H5	0.015600	0.693100	0.147300
C31	C3	0.264300	0.628600	0.311800
C41	C4	0.264300	0.707400	0.202500
H61	H6	0.378700	0.705500	0.143800
H71	H7	0.250000	0.954500	0.820100
O71	O7	0.118100	0.915550	0.175100
O81	O8	0.411900	0.883900	0.120100
O91	O9	0.114000	0.794640	0.400500
H81	H8	0.015600	0.806900	0.352700
C51	C5	0.264300	0.871400	0.188200
C61	C6	0.264300	0.792600	0.297500
H91	H9	0.378700	0.794500	0.356200
H101	H10	0.250000	0.045500	0.820100
O101	O10	0.381900	0.084450	0.175100
O111	O11	0.088100	0.116100	0.120100
O121	O12	0.386000	0.205360	0.400500
H111	H11	0.484400	0.193100	0.352700
C71	C7	0.235700	0.128600	0.188200
C81	C8	0.235700	0.207400	0.297500
H121	H12	0.121300	0.205500	0.356200
H131	H13	0.750000	0.545500	0.320100
O131	O13	0.618100	0.584450	0.675100
O141	O14	0.911900	0.616100	0.620100
O151	O15	0.614000	0.705360	0.900500
H141	H14	0.515600	0.693100	0.852700
C91	C9	0.764300	0.628600	0.688200
C101	C10	0.764300	0.707400	0.797500
H151	H15	0.878700	0.705500	0.856200
H161	H16	0.750000	0.454500	0.320100
O161	O16	0.881900	0.415550	0.675100
O171	O17	0.588100	0.383900	0.620100
O181	O18	0.886000	0.294640	0.900500
H171	H17	0.984400	0.306900	0.852700
C111	C11	0.735700	0.371400	0.688200
C121	C12	0.735700	0.292600	0.797500
H181	H18	0.621300	0.294500	0.856200
H191	H19	0.750000	0.045500	0.179900
O191	O19	0.881900	0.084450	0.824900
O201	O20	0.588100	0.116100	0.879900
O211	O21	0.886000	0.205360	0.599500
H201	H20	0.984400	0.193100	0.647300
C131	C13	0.735700	0.128600	0.811800
C141	C14	0.735700	0.207400	0.702500
H211	H21	0.621300	0.205500	0.643800
H221	H22	0.750000	0.954500	0.179900
O221	O22	0.618100	0.915550	0.824900
O231	O23	0.911900	0.883900	0.879900
O241	O24	0.614000	0.794640	0.599500
H231	H23	0.515600	0.806900	0.647300
C151	C15	0.764300	0.871400	0.811800
C161	C16	0.764300	0.792600	0.702500
H241	H24	0.878700	0.794500	0.643800
In11	In1	0.500000	0.500000	0.500000
In21	In2	0.000000	0.500000	0.500000
In31	In3	0.000000	0.000000	0.000000
In41	In4	0.500000	0.000000	0.000000
O251	O25	0.250000	0.500000	0.622800
O261	O26	0.250000	0.000000	0.877200
O271	O27	0.750000	0.500000	0.377200
O281	O28	0.750000	0.000000	0.122800
