data_VEMDAT_clean_PM
_symmetry_space_group_name_H-M	'P1'
_cell_length_a	13.539600
_cell_length_b	30.438000
_cell_length_c	15.721700
_cell_angle_alpha	90.000000
_cell_angle_beta	110.535000
_cell_angle_gamma	90.000000
_symmetry_Int_Tables_number 1

loop_
_symmetry_equiv_pos_as_xyz
'x,y,z'

loop_
_atom_site_label
_atom_site_type_symbol
_atom_site_fract_x
_atom_site_fract_y
_atom_site_fract_z
Zn11	Zn1	0.475700	0.050730	0.859480
Zn21	Zn2	0.333330	0.082940	0.291890
Zn31	Zn3	0.613720	0.023240	0.430440
S11	S1	0.226810	0.809750	0.725760
S21	S2	0.214290	0.215690	0.511210
P11	P1	0.493920	0.951800	0.782620
P21	P2	0.443060	0.067520	0.499390
N11	N1	0.771000	0.028200	0.502700
N21	N2	0.315000	0.046460	0.764600
N31	N3	0.635000	0.055740	0.953900
N41	N4	0.176200	0.080280	0.219500
N51	N5	0.460300	0.122980	0.860200
N61	N6	0.372100	0.352080	0.802900
C11	C1	0.350200	0.834280	0.787300
C21	C2	0.425400	0.811180	0.854500
H11	H1	0.410800	0.783000	0.869500
C31	C3	0.522600	0.830020	0.899700
H21	H2	0.573800	0.814400	0.944800
C41	C4	0.543900	0.872440	0.877800
H31	H3	0.610000	0.884700	0.907400
C51	C5	0.467100	0.896600	0.812000
C61	C6	0.369900	0.877190	0.766500
H41	H4	0.317900	0.892900	0.722100
C71	C7	0.435800	0.122800	0.538500
C81	C8	0.526500	0.144790	0.592100
H51	H5	0.591800	0.131100	0.606800
C91	C9	0.520400	0.186830	0.623900
H61	H6	0.581000	0.200800	0.661500
C101	C10	0.424100	0.207820	0.599600
H71	H7	0.420000	0.236200	0.620000
C111	C11	0.336100	0.187220	0.546300
C121	C12	0.340200	0.144360	0.515200
H81	H8	0.278600	0.130500	0.478900
C131	C13	0.818400	0.067270	0.521000
H91	H9	0.777900	0.092300	0.499900
C141	C14	0.924900	0.072330	0.569900
H101	H10	0.955200	0.100200	0.579900
C151	C15	0.985800	0.035360	0.603600
C161	C16	0.937100	0.994800	0.584200
H111	H11	0.975900	0.969200	0.604500
C171	C17	0.830600	0.992450	0.534600
H121	H12	0.798800	0.964900	0.522800
C181	C18	0.100600	0.038780	0.657300
C191	C19	0.163100	0.072540	0.642700
H131	H13	0.134100	0.093200	0.597300
C201	C20	0.269100	0.074640	0.697000
H141	H14	0.310200	0.096800	0.685700
C211	C21	0.255000	0.013700	0.777400
H151	H15	0.286200	0.993200	0.822700
C221	C22	0.148900	0.009100	0.726000
H161	H16	0.110200	0.986100	0.737700
C231	C23	0.710500	0.031770	0.939300
H171	H17	0.691000	0.011100	0.892800
C241	C24	0.816300	0.036500	0.990500
H181	H18	0.866100	0.019200	0.978000
C251	C25	0.848300	0.066950	0.060500
C261	C26	0.769500	0.091160	0.077600
H191	H19	0.786800	0.111500	0.124800
C271	C27	0.665400	0.084400	0.023100
H201	H20	0.613600	0.100600	0.035200
C281	C28	0.962100	0.072850	0.115600
C291	C29	0.039500	0.063680	0.078600
H211	H21	0.020600	0.055000	0.018300
C301	C30	0.144500	0.067590	0.132300
H221	H22	0.195400	0.061100	0.107000
C311	C31	0.102100	0.090520	0.254300
H231	H23	0.123200	0.100100	0.314300
C321	C32	0.995000	0.087470	0.204700
H241	H24	0.945800	0.095200	0.231000
C331	C33	0.535900	0.149970	0.853500
H251	H25	0.598700	0.137500	0.853800
C341	C34	0.525900	0.195260	0.846200
H261	H26	0.581000	0.212600	0.842900
C351	C35	0.431600	0.214220	0.843800
C361	C36	0.353100	0.186700	0.852100
H271	H27	0.289200	0.198300	0.851300
C371	C37	0.371600	0.142140	0.861500
H281	H28	0.319700	0.124300	0.869300
C381	C38	0.412400	0.262110	0.829300
C391	C39	0.491300	0.293150	0.867200
H291	H29	0.559100	0.284200	0.902100
C401	C40	0.467800	0.337270	0.852300
H301	H30	0.521300	0.357600	0.878000
C411	C41	0.296600	0.322290	0.765800
H311	H31	0.229700	0.332200	0.730900
C421	C42	0.312800	0.277570	0.776700
H321	H32	0.258000	0.258000	0.749300
O11	O1	0.407600	0.961620	0.692400
O21	O2	0.604760	0.951150	0.777440
O31	O3	0.490130	0.982410	0.858270
O41	O4	0.164900	0.814400	0.780200
O51	O5	0.186200	0.831400	0.642100
O61	O6	0.249800	0.765300	0.713000
O71	O7	0.549800	0.064180	0.489200
O81	O8	0.351200	0.060220	0.410820
O91	O9	0.431100	0.037310	0.572530
O101	O10	0.171600	0.205400	0.573800
O111	O11	0.151500	0.198200	0.429500
O121	O12	0.229000	0.256100	0.551000
O131	O13	0.240200	0.259800	0.478800
Zn41	Zn4	0.524300	0.550730	0.640520
Zn51	Zn5	0.666670	0.582940	0.208110
Zn61	Zn6	0.386280	0.523240	0.069560
S31	S3	0.773190	0.309750	0.774240
S41	S4	0.785710	0.715690	0.988790
P31	P3	0.506080	0.451800	0.717380
P41	P4	0.556940	0.567520	0.000610
N71	N7	0.229000	0.528200	0.997300
N81	N8	0.685000	0.546460	0.735400
N91	N9	0.365000	0.555740	0.546100
N101	N10	0.823800	0.580280	0.280500
N111	N11	0.539700	0.622980	0.639800
N121	N12	0.627900	0.852080	0.697100
C431	C43	0.649800	0.334280	0.712700
C441	C44	0.574600	0.311180	0.645500
H331	H33	0.589200	0.283000	0.630500
C451	C45	0.477400	0.330020	0.600300
H341	H34	0.426200	0.314400	0.555200
C461	C46	0.456100	0.372440	0.622200
H351	H35	0.390000	0.384700	0.592600
C471	C47	0.532900	0.396600	0.688000
C481	C48	0.630100	0.377190	0.733500
H361	H36	0.682100	0.392900	0.777900
C491	C49	0.564200	0.622800	0.961500
C501	C50	0.473500	0.644790	0.907900
H371	H37	0.408200	0.631100	0.893200
C511	C51	0.479600	0.686830	0.876100
H381	H38	0.419000	0.700800	0.838500
C521	C52	0.575900	0.707820	0.900400
H391	H39	0.580000	0.736200	0.880000
C531	C53	0.663900	0.687220	0.953700
C541	C54	0.659800	0.644360	0.984800
H401	H40	0.721400	0.630500	0.021100
C551	C55	0.181600	0.567270	0.979000
H411	H41	0.222100	0.592300	0.000100
C561	C56	0.075100	0.572330	0.930100
H421	H42	0.044800	0.600200	0.920100
C571	C57	0.014200	0.535360	0.896400
C581	C58	0.062900	0.494800	0.915800
H431	H43	0.024100	0.469200	0.895500
C591	C59	0.169400	0.492450	0.965400
H441	H44	0.201200	0.464900	0.977200
C601	C60	0.899400	0.538780	0.842700
C611	C61	0.836900	0.572540	0.857300
H451	H45	0.865900	0.593200	0.902700
C621	C62	0.730900	0.574640	0.803000
H461	H46	0.689800	0.596800	0.814300
C631	C63	0.745000	0.513700	0.722600
H471	H47	0.713800	0.493200	0.677300
C641	C64	0.851100	0.509100	0.774000
H481	H48	0.889800	0.486100	0.762300
C651	C65	0.289500	0.531770	0.560700
H491	H49	0.309000	0.511100	0.607200
C661	C66	0.183700	0.536500	0.509500
H501	H50	0.133900	0.519200	0.522000
C671	C67	0.151700	0.566950	0.439500
C681	C68	0.230500	0.591160	0.422400
H511	H51	0.213200	0.611500	0.375200
C691	C69	0.334600	0.584400	0.476900
H521	H52	0.386400	0.600600	0.464800
C701	C70	0.037900	0.572850	0.384400
C711	C71	0.960500	0.563680	0.421400
H531	H53	0.979400	0.555000	0.481700
C721	C72	0.855500	0.567590	0.367700
H541	H54	0.804600	0.561100	0.393000
C731	C73	0.897900	0.590520	0.245700
H551	H55	0.876800	0.600100	0.185700
C741	C74	0.005000	0.587470	0.295300
H561	H56	0.054200	0.595200	0.269000
C751	C75	0.464100	0.649970	0.646500
H571	H57	0.401300	0.637500	0.646200
C761	C76	0.474100	0.695260	0.653800
H581	H58	0.419000	0.712600	0.657100
C771	C77	0.568400	0.714220	0.656200
C781	C78	0.646900	0.686700	0.647900
H591	H59	0.710800	0.698300	0.648700
C791	C79	0.628400	0.642140	0.638500
H601	H60	0.680300	0.624300	0.630700
C801	C80	0.587600	0.762110	0.670700
C811	C81	0.508700	0.793150	0.632800
H611	H61	0.440900	0.784200	0.597900
C821	C82	0.532200	0.837270	0.647700
H621	H62	0.478700	0.857600	0.622000
C831	C83	0.703400	0.822290	0.734200
H631	H63	0.770300	0.832200	0.769100
C841	C84	0.687200	0.777570	0.723300
H641	H64	0.742000	0.758000	0.750700
O141	O14	0.592400	0.461620	0.807600
O151	O15	0.395240	0.451150	0.722560
O161	O16	0.509870	0.482410	0.641730
O171	O17	0.835100	0.314400	0.719800
O181	O18	0.813800	0.331400	0.857900
O191	O19	0.750200	0.265300	0.787000
O201	O20	0.450200	0.564180	0.010800
O211	O21	0.648800	0.560220	0.089180
O221	O22	0.568900	0.537310	0.927470
O231	O23	0.828400	0.705400	0.926200
O241	O24	0.848500	0.698200	0.070500
O251	O25	0.771000	0.756100	0.949000
O261	O26	0.759800	0.759800	0.021200
Zn71	Zn7	0.524300	0.949270	0.140520
Zn81	Zn8	0.666670	0.917060	0.708110
Zn91	Zn9	0.386280	0.976760	0.569560
S51	S5	0.773190	0.190250	0.274240
S61	S6	0.785710	0.784310	0.488790
P51	P5	0.506080	0.048200	0.217380
P61	P6	0.556940	0.932480	0.500610
N131	N13	0.229000	0.971800	0.497300
N141	N14	0.685000	0.953540	0.235400
N151	N15	0.365000	0.944260	0.046100
N161	N16	0.823800	0.919720	0.780500
N171	N17	0.539700	0.877020	0.139800
N181	N18	0.627900	0.647920	0.197100
C851	C85	0.649800	0.165720	0.212700
C861	C86	0.574600	0.188820	0.145500
H651	H65	0.589200	0.217000	0.130500
C871	C87	0.477400	0.169980	0.100300
H661	H66	0.426200	0.185600	0.055200
C881	C88	0.456100	0.127560	0.122200
H671	H67	0.390000	0.115300	0.092600
C891	C89	0.532900	0.103400	0.188000
C901	C90	0.630100	0.122810	0.233500
H681	H68	0.682100	0.107100	0.277900
C911	C91	0.564200	0.877200	0.461500
C921	C92	0.473500	0.855210	0.407900
H691	H69	0.408200	0.868900	0.393200
C931	C93	0.479600	0.813170	0.376100
H701	H70	0.419000	0.799200	0.338500
C941	C94	0.575900	0.792180	0.400400
H711	H71	0.580000	0.763800	0.380000
C951	C95	0.663900	0.812780	0.453700
C961	C96	0.659800	0.855640	0.484800
H721	H72	0.721400	0.869500	0.521100
C971	C97	0.181600	0.932730	0.479000
H731	H73	0.222100	0.907700	0.500100
C981	C98	0.075100	0.927670	0.430100
H741	H74	0.044800	0.899800	0.420100
C991	C99	0.014200	0.964640	0.396400
C1001	C100	0.062900	0.005200	0.415800
H751	H75	0.024100	0.030800	0.395500
C1011	C101	0.169400	0.007550	0.465400
H761	H76	0.201200	0.035100	0.477200
C1021	C102	0.899400	0.961220	0.342700
C1031	C103	0.836900	0.927460	0.357300
H771	H77	0.865900	0.906800	0.402700
C1041	C104	0.730900	0.925360	0.303000
H781	H78	0.689800	0.903200	0.314300
C1051	C105	0.745000	0.986300	0.222600
H791	H79	0.713800	0.006800	0.177300
C1061	C106	0.851100	0.990900	0.274000
H801	H80	0.889800	0.013900	0.262300
C1071	C107	0.289500	0.968230	0.060700
H811	H81	0.309000	0.988900	0.107200
C1081	C108	0.183700	0.963500	0.009500
H821	H82	0.133900	0.980800	0.022000
C1091	C109	0.151700	0.933050	0.939500
C1101	C110	0.230500	0.908840	0.922400
H831	H83	0.213200	0.888500	0.875200
C1111	C111	0.334600	0.915600	0.976900
H841	H84	0.386400	0.899400	0.964800
C1121	C112	0.037900	0.927150	0.884400
C1131	C113	0.960500	0.936320	0.921400
H851	H85	0.979400	0.945000	0.981700
C1141	C114	0.855500	0.932410	0.867700
H861	H86	0.804600	0.938900	0.893000
C1151	C115	0.897900	0.909480	0.745700
H871	H87	0.876800	0.899900	0.685700
C1161	C116	0.005000	0.912530	0.795300
H881	H88	0.054200	0.904800	0.769000
C1171	C117	0.464100	0.850030	0.146500
H891	H89	0.401300	0.862500	0.146200
C1181	C118	0.474100	0.804740	0.153800
H901	H90	0.419000	0.787400	0.157100
C1191	C119	0.568400	0.785780	0.156200
C1201	C120	0.646900	0.813300	0.147900
H911	H91	0.710800	0.801700	0.148700
C1211	C121	0.628400	0.857860	0.138500
H921	H92	0.680300	0.875700	0.130700
C1221	C122	0.587600	0.737890	0.170700
C1231	C123	0.508700	0.706850	0.132800
H931	H93	0.440900	0.715800	0.097900
C1241	C124	0.532200	0.662730	0.147700
H941	H94	0.478700	0.642400	0.122000
C1251	C125	0.703400	0.677710	0.234200
H951	H95	0.770300	0.667800	0.269100
C1261	C126	0.687200	0.722430	0.223300
H961	H96	0.742000	0.742000	0.250700
O271	O27	0.592400	0.038380	0.307600
O281	O28	0.395240	0.048850	0.222560
O291	O29	0.509870	0.017590	0.141730
O301	O30	0.835100	0.185600	0.219800
O311	O31	0.813800	0.168600	0.357900
O321	O32	0.750200	0.234700	0.287000
O331	O33	0.450200	0.935820	0.510800
O341	O34	0.648800	0.939780	0.589180
O351	O35	0.568900	0.962690	0.427470
O361	O36	0.828400	0.794600	0.426200
O371	O37	0.848500	0.801800	0.570500
O381	O38	0.771000	0.743900	0.449000
O391	O39	0.759800	0.740200	0.521200
Zn101	Zn10	0.475700	0.449270	0.359480
Zn111	Zn11	0.333330	0.417060	0.791890
Zn121	Zn12	0.613720	0.476760	0.930440
S71	S7	0.226810	0.690250	0.225760
S81	S8	0.214290	0.284310	0.011210
P71	P7	0.493920	0.548200	0.282620
P81	P8	0.443060	0.432480	0.999390
N191	N19	0.771000	0.471800	0.002700
N201	N20	0.315000	0.453540	0.264600
N211	N21	0.635000	0.444260	0.453900
N221	N22	0.176200	0.419720	0.719500
N231	N23	0.460300	0.377020	0.360200
N241	N24	0.372100	0.147920	0.302900
C1271	C127	0.350200	0.665720	0.287300
C1281	C128	0.425400	0.688820	0.354500
H971	H97	0.410800	0.717000	0.369500
C1291	C129	0.522600	0.669980	0.399700
H981	H98	0.573800	0.685600	0.444800
C1301	C130	0.543900	0.627560	0.377800
H991	H99	0.610000	0.615300	0.407400
C1311	C131	0.467100	0.603400	0.312000
C1321	C132	0.369900	0.622810	0.266500
H1001	H100	0.317900	0.607100	0.222100
C1331	C133	0.435800	0.377200	0.038500
C1341	C134	0.526500	0.355210	0.092100
H1011	H101	0.591800	0.368900	0.106800
C1351	C135	0.520400	0.313170	0.123900
H1021	H102	0.581000	0.299200	0.161500
C1361	C136	0.424100	0.292180	0.099600
H1031	H103	0.420000	0.263800	0.120000
C1371	C137	0.336100	0.312780	0.046300
C1381	C138	0.340200	0.355640	0.015200
H1041	H104	0.278600	0.369500	0.978900
C1391	C139	0.818400	0.432730	0.021000
H1051	H105	0.777900	0.407700	0.999900
C1401	C140	0.924900	0.427670	0.069900
H1061	H106	0.955200	0.399800	0.079900
C1411	C141	0.985800	0.464640	0.103600
C1421	C142	0.937100	0.505200	0.084200
H1071	H107	0.975900	0.530800	0.104500
C1431	C143	0.830600	0.507550	0.034600
H1081	H108	0.798800	0.535100	0.022800
C1441	C144	0.100600	0.461220	0.157300
C1451	C145	0.163100	0.427460	0.142700
H1091	H109	0.134100	0.406800	0.097300
C1461	C146	0.269100	0.425360	0.197000
H1101	H110	0.310200	0.403200	0.185700
C1471	C147	0.255000	0.486300	0.277400
H1111	H111	0.286200	0.506800	0.322700
C1481	C148	0.148900	0.490900	0.226000
H1121	H112	0.110200	0.513900	0.237700
C1491	C149	0.710500	0.468230	0.439300
H1131	H113	0.691000	0.488900	0.392800
C1501	C150	0.816300	0.463500	0.490500
H1141	H114	0.866100	0.480800	0.478000
C1511	C151	0.848300	0.433050	0.560500
C1521	C152	0.769500	0.408840	0.577600
H1151	H115	0.786800	0.388500	0.624800
C1531	C153	0.665400	0.415600	0.523100
H1161	H116	0.613600	0.399400	0.535200
C1541	C154	0.962100	0.427150	0.615600
C1551	C155	0.039500	0.436320	0.578600
H1171	H117	0.020600	0.445000	0.518300
C1561	C156	0.144500	0.432410	0.632300
H1181	H118	0.195400	0.438900	0.607000
C1571	C157	0.102100	0.409480	0.754300
H1191	H119	0.123200	0.399900	0.814300
C1581	C158	0.995000	0.412530	0.704700
H1201	H120	0.945800	0.404800	0.731000
C1591	C159	0.535900	0.350030	0.353500
H1211	H121	0.598700	0.362500	0.353800
C1601	C160	0.525900	0.304740	0.346200
H1221	H122	0.581000	0.287400	0.342900
C1611	C161	0.431600	0.285780	0.343800
C1621	C162	0.353100	0.313300	0.352100
H1231	H123	0.289200	0.301700	0.351300
C1631	C163	0.371600	0.357860	0.361500
H1241	H124	0.319700	0.375700	0.369300
C1641	C164	0.412400	0.237890	0.329300
C1651	C165	0.491300	0.206850	0.367200
H1251	H125	0.559100	0.215800	0.402100
C1661	C166	0.467800	0.162730	0.352300
H1261	H126	0.521300	0.142400	0.378000
C1671	C167	0.296600	0.177710	0.265800
H1271	H127	0.229700	0.167800	0.230900
C1681	C168	0.312800	0.222430	0.276700
H1281	H128	0.258000	0.242000	0.249300
O401	O40	0.407600	0.538380	0.192400
O411	O41	0.604760	0.548850	0.277440
O421	O42	0.490130	0.517590	0.358270
O431	O43	0.164900	0.685600	0.280200
O441	O44	0.186200	0.668600	0.142100
O451	O45	0.249800	0.734700	0.213000
O461	O46	0.549800	0.435820	0.989200
O471	O47	0.351200	0.439780	0.910820
O481	O48	0.431100	0.462690	0.072530
O491	O49	0.171600	0.294600	0.073800
O501	O50	0.151500	0.301800	0.929500
O511	O51	0.229000	0.243900	0.051000
O521	O52	0.240200	0.240200	0.978800
