data_VEMMIK_clean_PM
_symmetry_space_group_name_H-M	'P1'
_cell_length_a	8.603000
_cell_length_b	19.277400
_cell_length_c	19.277400
_cell_angle_alpha	62.172800
_cell_angle_beta	81.445000
_cell_angle_gamma	98.555000
_symmetry_Int_Tables_number 1

loop_
_symmetry_equiv_pos_as_xyz
'x,y,z'

loop_
_atom_site_label
_atom_site_type_symbol
_atom_site_fract_x
_atom_site_fract_y
_atom_site_fract_z
Mn11	Mn1	0.221100	0.303230	0.279570
Mn21	Mn2	0.500670	0.279570	0.417200
Mn31	Mn3	0.917870	0.417200	0.303230
Mn41	Mn4	0.778900	0.696770	0.720430
Mn51	Mn5	0.499330	0.720430	0.582800
Mn61	Mn6	0.082130	0.582800	0.696770
H11	H1	0.388500	0.363700	0.095000
H21	H2	0.665300	0.583600	0.029300
H31	H3	0.483500	0.095000	0.541300
H41	H4	0.694600	0.029300	0.387100
H51	H5	0.024800	0.541300	0.363700
H61	H6	0.081700	0.387100	0.583600
H71	H7	0.611500	0.636300	0.905000
H81	H8	0.334700	0.416400	0.970700
H91	H9	0.516500	0.905000	0.458700
H101	H10	0.305400	0.970700	0.612900
H111	H11	0.975200	0.458700	0.636300
H121	H12	0.918300	0.612900	0.416400
C11	C1	0.579900	0.436600	0.153500
C21	C2	0.537800	0.468300	0.077800
C31	C3	0.433500	0.418000	0.057200
C41	C4	0.599100	0.549600	0.017800
C51	C5	0.733400	0.153500	0.409900
C61	C6	0.615600	0.077800	0.453900
C71	C7	0.490700	0.057200	0.524800
C81	C8	0.616900	0.017800	0.432600
C91	C9	0.143300	0.409900	0.436600
C101	C10	0.069500	0.453900	0.468300
C111	C11	0.015500	0.524800	0.418000
C121	C12	0.049500	0.432600	0.549600
C131	C13	0.420100	0.563400	0.846500
C141	C14	0.462200	0.531700	0.922200
C151	C15	0.566500	0.582000	0.942800
C161	C16	0.400900	0.450400	0.982200
C171	C17	0.266600	0.846500	0.590100
C181	C18	0.384400	0.922200	0.546100
C191	C19	0.509300	0.942800	0.475200
C201	C20	0.383100	0.982200	0.567400
C211	C21	0.856700	0.590100	0.563400
C221	C22	0.930500	0.546100	0.531700
C231	C23	0.984500	0.475200	0.582000
C241	C24	0.950500	0.567400	0.450400
N11	N1	0.487000	0.374600	0.223800
N21	N2	0.576400	0.365800	0.278300
N31	N3	0.714700	0.419700	0.239200
N41	N4	0.722500	0.465300	0.162100
N51	N5	0.710800	0.223800	0.401600
N61	N6	0.854700	0.278300	0.355900
N71	N7	0.953900	0.239200	0.341100
N81	N8	0.884600	0.162100	0.372600
N91	N9	0.112400	0.401600	0.374600
N101	N10	0.210600	0.355900	0.365800
N111	N11	0.295000	0.341100	0.419700
N121	N12	0.257200	0.372600	0.465300
N131	N13	0.513000	0.625400	0.776200
N141	N14	0.423600	0.634200	0.721700
N151	N15	0.285300	0.580300	0.760800
N161	N16	0.277500	0.534700	0.837900
N171	N17	0.289200	0.776200	0.598400
N181	N18	0.145300	0.721700	0.644100
N191	N19	0.046100	0.760800	0.658900
N201	N20	0.115400	0.837900	0.627400
N211	N21	0.887600	0.598400	0.625400
N221	N22	0.789400	0.644100	0.634200
N231	N23	0.705000	0.658900	0.580300
N241	N24	0.742800	0.627400	0.534700
Cl11	Cl1	0.119940	0.421520	0.191100
Cl21	Cl2	0.311040	0.191100	0.387380
Cl31	Cl3	0.698420	0.387380	0.421520
Cl41	Cl4	0.880060	0.578480	0.808900
Cl51	Cl5	0.688960	0.808900	0.612620
Cl61	Cl6	0.301580	0.612620	0.578480
