data_VEMMEG_clean_PM
_symmetry_space_group_name_H-M	'P1'
_cell_length_a	11.693000
_cell_length_b	11.994000
_cell_length_c	13.753000
_cell_angle_alpha	92.970000
_cell_angle_beta	114.360000
_cell_angle_gamma	108.354000
_symmetry_Int_Tables_number 1

loop_
_symmetry_equiv_pos_as_xyz
'x,y,z'

loop_
_atom_site_label
_atom_site_type_symbol
_atom_site_fract_x
_atom_site_fract_y
_atom_site_fract_z
Mn11	Mn1	0.892600	0.271540	0.046430
Mn21	Mn2	0.107400	0.728460	0.953570
Mn31	Mn3	0.000000	0.000000	0.000000
H11	H1	0.323200	0.561600	0.962500
H21	H2	0.489800	0.318200	0.051400
H31	H3	0.886400	0.126200	0.429800
H41	H4	0.097800	0.929300	0.407900
H51	H5	0.641000	0.894000	0.563200
H61	H6	0.490900	0.131600	0.622000
H71	H7	0.676800	0.438400	0.037500
H81	H8	0.510200	0.681800	0.948600
H91	H9	0.113600	0.873800	0.570200
H101	H10	0.902200	0.070700	0.592100
H111	H11	0.359000	0.106000	0.436800
H121	H12	0.509100	0.868400	0.378000
C11	C1	0.266500	0.351100	0.018500
C21	C2	0.386500	0.429400	0.010000
C31	C3	0.395200	0.536200	0.978400
C41	C4	0.493200	0.391500	0.031100
C51	C5	0.974300	0.060600	0.296200
C61	C6	0.988600	0.030800	0.401000
C71	C7	0.931600	0.075000	0.457600
C81	C8	0.057700	0.957500	0.444500
C91	C9	0.671300	0.039600	0.730100
C101	C10	0.581300	0.017000	0.612800
C111	C11	0.584800	0.937200	0.538500
C121	C12	0.495300	0.078600	0.573200
C131	C13	0.733500	0.648900	0.981500
C141	C14	0.613500	0.570600	0.990000
C151	C15	0.604800	0.463800	0.021600
C161	C16	0.506800	0.608500	0.968900
C171	C17	0.025700	0.939400	0.703800
C181	C18	0.011400	0.969200	0.599000
C191	C19	0.068400	0.925000	0.542400
C201	C20	0.942300	0.042500	0.555500
C211	C21	0.328700	0.960400	0.269900
C221	C22	0.418700	0.983000	0.387200
C231	C23	0.415200	0.062800	0.461500
C241	C24	0.504700	0.921400	0.426800
N11	N1	0.175200	0.388600	0.029000
N21	N2	0.083100	0.289200	0.030700
N31	N3	0.119100	0.196800	0.021200
N41	N4	0.234100	0.233900	0.013400
N51	N5	0.985600	0.993400	0.222500
N61	N6	0.965600	0.050700	0.139600
N71	N7	0.945500	0.149300	0.163000
N81	N8	0.949100	0.157600	0.261200
N91	N9	0.697300	0.133500	0.801700
N101	N10	0.787500	0.124300	0.896200
N111	N11	0.812700	0.026200	0.880900
N121	N12	0.738900	0.969800	0.776500
N131	N13	0.824800	0.611400	0.971000
N141	N14	0.916900	0.710800	0.969300
N151	N15	0.880900	0.803200	0.978800
N161	N16	0.765900	0.766100	0.986600
N171	N17	0.014400	0.006600	0.777500
N181	N18	0.034400	0.949300	0.860400
N191	N19	0.054500	0.850700	0.837000
N201	N20	0.050900	0.842400	0.738800
N211	N21	0.302700	0.866500	0.198300
N221	N22	0.212500	0.875700	0.103800
N231	N23	0.187300	0.973800	0.119100
N241	N24	0.261100	0.030200	0.223500
