data_VERZEZ_clean_PM
_symmetry_space_group_name_H-M	'P1'
_cell_length_a	7.812100
_cell_length_b	7.961200
_cell_length_c	13.172800
_cell_angle_alpha	90.000000
_cell_angle_beta	90.000000
_cell_angle_gamma	90.000000
_symmetry_Int_Tables_number 1

loop_
_symmetry_equiv_pos_as_xyz
'x,y,z'

loop_
_atom_site_label
_atom_site_type_symbol
_atom_site_fract_x
_atom_site_fract_y
_atom_site_fract_z
Mn11	Mn1	0.553350	0.494610	0.085430
C11	C1	0.415800	0.224900	0.235290
H11	H1	0.520200	0.173600	0.221500
C21	C2	0.293100	0.772200	0.032570
H21	H2	0.356900	0.779100	0.973100
C31	C3	0.311900	0.276800	0.958700
H31	H3	0.239000	0.295200	0.013400
O11	O1	0.385500	0.360100	0.191450
O21	O2	0.317900	0.151700	0.296510
O31	O3	0.342300	0.670000	0.094590
O41	O4	0.168800	0.868300	0.038390
O51	O5	0.451100	0.350500	0.960430
O61	O6	0.259300	0.180000	0.890680
Mn21	Mn2	0.946650	0.505390	0.585430
C41	C4	0.084200	0.775100	0.735290
H41	H4	0.979800	0.826400	0.721500
C51	C5	0.206900	0.227800	0.532570
H51	H5	0.143100	0.220900	0.473100
C61	C6	0.188100	0.723200	0.458700
H61	H6	0.261000	0.704800	0.513400
O71	O7	0.114500	0.639900	0.691450
O81	O8	0.182100	0.848300	0.796510
O91	O9	0.157700	0.330000	0.594590
O101	O10	0.331200	0.131700	0.538390
O111	O11	0.048900	0.649500	0.460430
O121	O12	0.240700	0.820000	0.390680
Mn31	Mn3	0.446650	0.994610	0.414570
C71	C7	0.584200	0.724900	0.264710
H71	H7	0.479800	0.673600	0.278500
C81	C8	0.706900	0.272200	0.467430
H81	H8	0.643100	0.279100	0.526900
C91	C9	0.688100	0.776800	0.541300
H91	H9	0.761000	0.795200	0.486600
O131	O13	0.614500	0.860100	0.308550
O141	O14	0.682100	0.651700	0.203490
O151	O15	0.657700	0.170000	0.405410
O161	O16	0.831200	0.368300	0.461610
O171	O17	0.548900	0.850500	0.539570
O181	O18	0.740700	0.680000	0.609320
Mn41	Mn4	0.053350	0.005390	0.914570
C101	C10	0.915800	0.275100	0.764710
H101	H10	0.020200	0.326400	0.778500
C111	C11	0.793100	0.727800	0.967430
H111	H11	0.856900	0.720900	0.026900
C121	C12	0.811900	0.223200	0.041300
H121	H12	0.739000	0.204800	0.986600
O191	O19	0.885500	0.139900	0.808550
O201	O20	0.817900	0.348300	0.703490
O211	O21	0.842300	0.830000	0.905410
O221	O22	0.668800	0.631700	0.961610
O231	O23	0.951100	0.149500	0.039570
O241	O24	0.759300	0.320000	0.109320
