data_VERZID_clean_PM
_symmetry_space_group_name_H-M	'P1'
_cell_length_a	7.683900
_cell_length_b	7.755500
_cell_length_c	13.019500
_cell_angle_alpha	90.000000
_cell_angle_beta	90.000000
_cell_angle_gamma	90.000000
_symmetry_Int_Tables_number 1

loop_
_symmetry_equiv_pos_as_xyz
'x,y,z'

loop_
_atom_site_label
_atom_site_type_symbol
_atom_site_fract_x
_atom_site_fract_y
_atom_site_fract_z
Co11	Co1	0.550480	0.494560	0.084810
C11	C1	0.425900	0.226000	0.238400
H11	H1	0.533500	0.175200	0.226200
C21	C2	0.293100	0.769600	0.026200
H21	H2	0.355900	0.774400	0.965200
C31	C3	0.313500	0.268200	0.964500
H31	H3	0.246300	0.277100	0.023700
O11	O1	0.392900	0.363300	0.191420
O21	O2	0.327100	0.152100	0.299780
O31	O3	0.341000	0.664600	0.090350
O41	O4	0.167800	0.871100	0.035030
O51	O5	0.451400	0.351800	0.962200
O61	O6	0.256600	0.172400	0.893910
Co21	Co2	0.949520	0.505440	0.584810
C41	C4	0.074100	0.774000	0.738400
H41	H4	0.966500	0.824800	0.726200
C51	C5	0.206900	0.230400	0.526200
H51	H5	0.144100	0.225600	0.465200
C61	C6	0.186500	0.731800	0.464500
H61	H6	0.253700	0.722900	0.523700
O71	O7	0.107100	0.636700	0.691420
O81	O8	0.172900	0.847900	0.799780
O91	O9	0.159000	0.335400	0.590350
O101	O10	0.332200	0.128900	0.535030
O111	O11	0.048600	0.648200	0.462200
O121	O12	0.243400	0.827600	0.393910
Co31	Co3	0.449520	0.994560	0.415190
C71	C7	0.574100	0.726000	0.261600
H71	H7	0.466500	0.675200	0.273800
C81	C8	0.706900	0.269600	0.473800
H81	H8	0.644100	0.274400	0.534800
C91	C9	0.686500	0.768200	0.535500
H91	H9	0.753700	0.777100	0.476300
O131	O13	0.607100	0.863300	0.308580
O141	O14	0.672900	0.652100	0.200220
O151	O15	0.659000	0.164600	0.409650
O161	O16	0.832200	0.371100	0.464970
O171	O17	0.548600	0.851800	0.537800
O181	O18	0.743400	0.672400	0.606090
Co41	Co4	0.050480	0.005440	0.915190
C101	C10	0.925900	0.274000	0.761600
H101	H10	0.033500	0.324800	0.773800
C111	C11	0.793100	0.730400	0.973800
H111	H11	0.855900	0.725600	0.034800
C121	C12	0.813500	0.231800	0.035500
H121	H12	0.746300	0.222900	0.976300
O191	O19	0.892900	0.136700	0.808580
O201	O20	0.827100	0.347900	0.700220
O211	O21	0.841000	0.835400	0.909650
O221	O22	0.667800	0.628900	0.964970
O231	O23	0.951400	0.148200	0.037800
O241	O24	0.756600	0.327600	0.106090
