data_VETMIS_clean_PM
_symmetry_space_group_name_H-M	'P1'
_cell_length_a	20.463000
_cell_length_b	43.252000
_cell_length_c	43.252000
_cell_angle_alpha	120.000000
_cell_angle_beta	90.000000
_cell_angle_gamma	90.000000
_symmetry_Int_Tables_number 1

loop_
_symmetry_equiv_pos_as_xyz
'x,y,z'

loop_
_atom_site_label
_atom_site_type_symbol
_atom_site_fract_x
_atom_site_fract_y
_atom_site_fract_z
Cu11	Cu1	0.951300	0.680870	0.027370
Cu21	Cu2	0.951300	0.346500	0.319130
Cu31	Cu3	0.951300	0.972630	0.653500
Cu41	Cu4	0.451300	0.319130	0.972630
Cu51	Cu5	0.451300	0.653500	0.680870
Cu61	Cu6	0.451300	0.027370	0.346500
Cu71	Cu7	0.048700	0.653500	0.972630
Cu81	Cu8	0.048700	0.027370	0.680870
Cu91	Cu9	0.048700	0.319130	0.346500
Cu101	Cu10	0.548700	0.346500	0.027370
Cu111	Cu11	0.548700	0.972630	0.319130
Cu121	Cu12	0.548700	0.680870	0.653500
H11	H1	0.952400	0.549200	0.912500
H21	H2	0.747800	0.550800	0.959500
H31	H3	0.813100	0.601400	0.985900
H41	H4	0.932100	0.488800	0.864400
H51	H5	0.853500	0.436600	0.845000
H61	H6	0.787400	0.361500	0.809700
H71	H7	0.763900	0.331600	0.751600
H81	H8	0.231100	0.790500	0.011300
H91	H9	0.166300	0.751700	0.011000
H101	H10	0.030100	0.775500	0.086600
H111	H11	0.067800	0.833900	0.117500
H121	H12	0.278000	0.848900	0.034700
H131	H13	0.712800	0.493600	0.911100
H141	H14	0.150000	0.884100	0.120100
H151	H15	0.338400	0.983500	0.066500
H161	H16	0.342900	0.945300	0.093900
H171	H17	0.952400	0.363300	0.450800
H181	H18	0.747800	0.408700	0.449200
H191	H19	0.813100	0.384500	0.398600
H201	H20	0.932100	0.375600	0.511200
H211	H21	0.853500	0.408400	0.563400
H221	H22	0.787400	0.448200	0.638500
H231	H23	0.763900	0.420000	0.668400
H241	H24	0.231100	0.220800	0.209500
H251	H25	0.166300	0.259300	0.248300
H261	H26	0.030100	0.311100	0.224500
H271	H27	0.067800	0.283600	0.166100
H281	H28	0.278000	0.185800	0.151100
H291	H29	0.712800	0.417500	0.506400
H301	H30	0.150000	0.236000	0.115900
H311	H31	0.338400	0.083000	0.016500
H321	H32	0.342900	0.148600	0.054700
H331	H33	0.952400	0.087500	0.636700
H341	H34	0.747800	0.040500	0.591300
H351	H35	0.813100	0.014100	0.615500
H361	H36	0.932100	0.135600	0.624400
H371	H37	0.853500	0.155000	0.591600
H381	H38	0.787400	0.190300	0.551800
H391	H39	0.763900	0.248400	0.580000
H401	H40	0.231100	0.988700	0.779200
H411	H41	0.166300	0.989000	0.740700
H421	H42	0.030100	0.913400	0.688900
H431	H43	0.067800	0.882500	0.716400
H441	H44	0.278000	0.965300	0.814200
H451	H45	0.712800	0.088900	0.582500
H461	H46	0.150000	0.879900	0.764000
H471	H47	0.338400	0.933500	0.917000
H481	H48	0.342900	0.906100	0.851400
H491	H49	0.452400	0.450800	0.087500
H501	H50	0.247800	0.449200	0.040500
H511	H51	0.313100	0.398600	0.014100
H521	H52	0.432100	0.511200	0.135600
H531	H53	0.353500	0.563400	0.155000
H541	H54	0.287400	0.638500	0.190300
H551	H55	0.263900	0.668400	0.248400
H561	H56	0.731100	0.209500	0.988700
H571	H57	0.666300	0.248300	0.989000
H581	H58	0.530100	0.224500	0.913400
H591	H59	0.567800	0.166100	0.882500
H601	H60	0.778000	0.151100	0.965300
H611	H61	0.212800	0.506400	0.088900
H621	H62	0.650000	0.115900	0.879900
H631	H63	0.838400	0.016500	0.933500
H641	H64	0.842900	0.054700	0.906100
H651	H65	0.452400	0.636700	0.549200
H661	H66	0.247800	0.591300	0.550800
H671	H67	0.313100	0.615500	0.601400
H681	H68	0.432100	0.624400	0.488800
H691	H69	0.353500	0.591600	0.436600
H701	H70	0.287400	0.551800	0.361500
H711	H71	0.263900	0.580000	0.331600
H721	H72	0.731100	0.779200	0.790500
H731	H73	0.666300	0.740700	0.751700
H741	H74	0.530100	0.688900	0.775500
H751	H75	0.567800	0.716400	0.833900
H761	H76	0.778000	0.814200	0.848900
H771	H77	0.212800	0.582500	0.493600
H781	H78	0.650000	0.764000	0.884100
H791	H79	0.838400	0.917000	0.983500
H801	H80	0.842900	0.851400	0.945300
H811	H81	0.452400	0.912500	0.363300
H821	H82	0.247800	0.959500	0.408700
H831	H83	0.313100	0.985900	0.384500
H841	H84	0.432100	0.864400	0.375600
H851	H85	0.353500	0.845000	0.408400
H861	H86	0.287400	0.809700	0.448200
H871	H87	0.263900	0.751600	0.420000
H881	H88	0.731100	0.011300	0.220800
H891	H89	0.666300	0.011000	0.259300
H901	H90	0.530100	0.086600	0.311100
H911	H91	0.567800	0.117500	0.283600
H921	H92	0.778000	0.034700	0.185800
H931	H93	0.212800	0.911100	0.417500
H941	H94	0.650000	0.120100	0.236000
H951	H95	0.838400	0.066500	0.083000
H961	H96	0.842900	0.093900	0.148600
H971	H97	0.047600	0.636700	0.087500
H981	H98	0.252200	0.591300	0.040500
H991	H99	0.186900	0.615500	0.014100
H1001	H100	0.067900	0.624400	0.135600
H1011	H101	0.146500	0.591600	0.155000
H1021	H102	0.212600	0.551800	0.190300
H1031	H103	0.236100	0.580000	0.248400
H1041	H104	0.768900	0.779200	0.988700
H1051	H105	0.833700	0.740700	0.989000
H1061	H106	0.969900	0.688900	0.913400
H1071	H107	0.932200	0.716400	0.882500
H1081	H108	0.722000	0.814200	0.965300
H1091	H109	0.287200	0.582500	0.088900
H1101	H110	0.850000	0.764000	0.879900
H1111	H111	0.661600	0.917000	0.933500
H1121	H112	0.657100	0.851400	0.906100
H1131	H113	0.047600	0.912500	0.549200
H1141	H114	0.252200	0.959500	0.550800
H1151	H115	0.186900	0.985900	0.601400
H1161	H116	0.067900	0.864400	0.488800
H1171	H117	0.146500	0.845000	0.436600
H1181	H118	0.212600	0.809700	0.361500
H1191	H119	0.236100	0.751600	0.331600
H1201	H120	0.768900	0.011300	0.790500
H1211	H121	0.833700	0.011000	0.751700
H1221	H122	0.969900	0.086600	0.775500
H1231	H123	0.932200	0.117500	0.833900
H1241	H124	0.722000	0.034700	0.848900
H1251	H125	0.287200	0.911100	0.493600
H1261	H126	0.850000	0.120100	0.884100
H1271	H127	0.661600	0.066500	0.983500
H1281	H128	0.657100	0.093900	0.945300
H1291	H129	0.047600	0.450800	0.363300
H1301	H130	0.252200	0.449200	0.408700
H1311	H131	0.186900	0.398600	0.384500
H1321	H132	0.067900	0.511200	0.375600
H1331	H133	0.146500	0.563400	0.408400
H1341	H134	0.212600	0.638500	0.448200
H1351	H135	0.236100	0.668400	0.420000
H1361	H136	0.768900	0.209500	0.220800
H1371	H137	0.833700	0.248300	0.259300
H1381	H138	0.969900	0.224500	0.311100
H1391	H139	0.932200	0.166100	0.283600
H1401	H140	0.722000	0.151100	0.185800
H1411	H141	0.287200	0.506400	0.417500
H1421	H142	0.850000	0.115900	0.236000
H1431	H143	0.661600	0.016500	0.083000
H1441	H144	0.657100	0.054700	0.148600
H1451	H145	0.547600	0.363300	0.912500
H1461	H146	0.752200	0.408700	0.959500
H1471	H147	0.686900	0.384500	0.985900
H1481	H148	0.567900	0.375600	0.864400
H1491	H149	0.646500	0.408400	0.845000
H1501	H150	0.712600	0.448200	0.809700
H1511	H151	0.736100	0.420000	0.751600
H1521	H152	0.268900	0.220800	0.011300
H1531	H153	0.333700	0.259300	0.011000
H1541	H154	0.469900	0.311100	0.086600
H1551	H155	0.432200	0.283600	0.117500
H1561	H156	0.222000	0.185800	0.034700
H1571	H157	0.787200	0.417500	0.911100
H1581	H158	0.350000	0.236000	0.120100
H1591	H159	0.161600	0.083000	0.066500
H1601	H160	0.157100	0.148600	0.093900
H1611	H161	0.547600	0.087500	0.450800
H1621	H162	0.752200	0.040500	0.449200
H1631	H163	0.686900	0.014100	0.398600
H1641	H164	0.567900	0.135600	0.511200
H1651	H165	0.646500	0.155000	0.563400
H1661	H166	0.712600	0.190300	0.638500
H1671	H167	0.736100	0.248400	0.668400
H1681	H168	0.268900	0.988700	0.209500
H1691	H169	0.333700	0.989000	0.248300
H1701	H170	0.469900	0.913400	0.224500
H1711	H171	0.432200	0.882500	0.166100
H1721	H172	0.222000	0.965300	0.151100
H1731	H173	0.787200	0.088900	0.506400
H1741	H174	0.350000	0.879900	0.115900
H1751	H175	0.161600	0.933500	0.016500
H1761	H176	0.157100	0.906100	0.054700
H1771	H177	0.547600	0.549200	0.636700
H1781	H178	0.752200	0.550800	0.591300
H1791	H179	0.686900	0.601400	0.615500
H1801	H180	0.567900	0.488800	0.624400
H1811	H181	0.646500	0.436600	0.591600
H1821	H182	0.712600	0.361500	0.551800
H1831	H183	0.736100	0.331600	0.580000
H1841	H184	0.268900	0.790500	0.779200
H1851	H185	0.333700	0.751700	0.740700
H1861	H186	0.469900	0.775500	0.688900
H1871	H187	0.432200	0.833900	0.716400
H1881	H188	0.222000	0.848900	0.814200
H1891	H189	0.787200	0.493600	0.582500
H1901	H190	0.350000	0.884100	0.764000
H1911	H191	0.161600	0.983500	0.917000
H1921	H192	0.157100	0.945300	0.851400
H1931	H193	0.750000	0.299900	0.700100
H1941	H194	0.750000	0.400200	0.700100
H1951	H195	0.750000	0.299900	0.599800
H1961	H196	0.250000	0.700100	0.299900
H1971	H197	0.250000	0.599800	0.299900
H1981	H198	0.250000	0.700100	0.400200
H1991	H199	0.250000	0.031600	0.063200
H2001	H200	0.250000	0.031600	0.968400
H2011	H201	0.250000	0.936800	0.968400
H2021	H202	0.750000	0.968400	0.936800
H2031	H203	0.750000	0.968400	0.031600
H2041	H204	0.750000	0.063200	0.031600
C11	C1	0.889300	0.580300	0.951800
C21	C2	0.911400	0.549500	0.921900
C31	C3	0.872300	0.519200	0.906100
C41	C4	0.811000	0.519700	0.920200
C51	C5	0.788900	0.550500	0.950100
C61	C6	0.828000	0.580800	0.965900
C71	C7	0.893000	0.490200	0.876000
C81	C8	0.842000	0.459200	0.863200
C91	C9	0.769200	0.373800	0.799300
C101	C10	0.761300	0.356400	0.763000
C111	C11	0.069500	0.719600	0.025400
C121	C12	0.216800	0.809200	0.033000
C131	C13	0.218100	0.868600	0.080700
C141	C14	0.169100	0.803200	0.050900
C151	C15	0.146600	0.768200	0.032300
C161	C16	0.094500	0.757800	0.045700
C171	C17	0.065000	0.782500	0.077700
C181	C18	0.087500	0.817400	0.096100
C191	C19	0.139600	0.827800	0.082700
C201	C20	0.938300	0.610800	0.965300
C211	C21	0.245700	0.843400	0.046400
C221	C22	0.756300	0.492100	0.904200
C231	C23	0.790200	0.463600	0.875900
C241	C24	0.166600	0.865100	0.099200
C251	C25	0.306200	0.966900	0.063100
C261	C26	0.307700	0.945600	0.080600
C271	C27	0.889300	0.371500	0.419700
C281	C28	0.911400	0.372400	0.450500
C291	C29	0.872300	0.386900	0.480800
C301	C30	0.811000	0.400500	0.480300
C311	C31	0.788900	0.399600	0.449500
C321	C32	0.828000	0.385100	0.419200
C331	C33	0.893000	0.385800	0.509800
C341	C34	0.842000	0.404000	0.540800
C351	C35	0.769200	0.425500	0.626200
C361	C36	0.761300	0.406600	0.643600
C371	C37	0.069500	0.305800	0.280400
C381	C38	0.216800	0.223800	0.190800
C391	C39	0.218100	0.212100	0.131400
C401	C40	0.169100	0.247700	0.196800
C411	C41	0.146600	0.264100	0.231800
C421	C42	0.094500	0.287900	0.242200
C431	C43	0.065000	0.295200	0.217500
C441	C44	0.087500	0.278700	0.182600
C451	C45	0.139600	0.254900	0.172200
C461	C46	0.938300	0.354500	0.389200
C471	C47	0.245700	0.203000	0.156600
C481	C48	0.756300	0.412100	0.507900
C491	C49	0.790200	0.412300	0.536400
C501	C50	0.166600	0.234100	0.134900
C511	C51	0.306200	0.096200	0.033100
C521	C52	0.307700	0.135000	0.054400
C531	C53	0.889300	0.048200	0.628500
C541	C54	0.911400	0.078100	0.627600
C551	C55	0.872300	0.093900	0.613100
C561	C56	0.811000	0.079800	0.599500
C571	C57	0.788900	0.049900	0.600400
C581	C58	0.828000	0.034100	0.614900
C591	C59	0.893000	0.124000	0.614200
C601	C60	0.842000	0.136800	0.596000
C611	C61	0.769200	0.200700	0.574500
C621	C62	0.761300	0.237000	0.593400
C631	C63	0.069500	0.974600	0.694200
C641	C64	0.216800	0.967000	0.776200
C651	C65	0.218100	0.919300	0.787900
C661	C66	0.169100	0.949100	0.752300
C671	C67	0.146600	0.967700	0.735900
C681	C68	0.094500	0.954300	0.712100
C691	C69	0.065000	0.922300	0.704800
C701	C70	0.087500	0.903900	0.721300
C711	C71	0.139600	0.917300	0.745100
C721	C72	0.938300	0.034700	0.645500
C731	C73	0.245700	0.953600	0.797000
C741	C74	0.756300	0.095800	0.587900
C751	C75	0.790200	0.124100	0.587700
C761	C76	0.166600	0.900800	0.765900
C771	C77	0.306200	0.936900	0.903800
C781	C78	0.307700	0.919400	0.865000
C791	C79	0.389300	0.419700	0.048200
C801	C80	0.411400	0.450500	0.078100
C811	C81	0.372300	0.480800	0.093900
C821	C82	0.311000	0.480300	0.079800
C831	C83	0.288900	0.449500	0.049900
C841	C84	0.328000	0.419200	0.034100
C851	C85	0.393000	0.509800	0.124000
C861	C86	0.342000	0.540800	0.136800
C871	C87	0.269200	0.626200	0.200700
C881	C88	0.261300	0.643600	0.237000
C891	C89	0.569500	0.280400	0.974600
C901	C90	0.716800	0.190800	0.967000
C911	C91	0.718100	0.131400	0.919300
C921	C92	0.669100	0.196800	0.949100
C931	C93	0.646600	0.231800	0.967700
C941	C94	0.594500	0.242200	0.954300
C951	C95	0.565000	0.217500	0.922300
C961	C96	0.587500	0.182600	0.903900
C971	C97	0.639600	0.172200	0.917300
C981	C98	0.438300	0.389200	0.034700
C991	C99	0.745700	0.156600	0.953600
C1001	C100	0.256300	0.507900	0.095800
C1011	C101	0.290200	0.536400	0.124100
C1021	C102	0.666600	0.134900	0.900800
C1031	C103	0.806200	0.033100	0.936900
C1041	C104	0.807700	0.054400	0.919400
C1051	C105	0.389300	0.628500	0.580300
C1061	C106	0.411400	0.627600	0.549500
C1071	C107	0.372300	0.613100	0.519200
C1081	C108	0.311000	0.599500	0.519700
C1091	C109	0.288900	0.600400	0.550500
C1101	C110	0.328000	0.614900	0.580800
C1111	C111	0.393000	0.614200	0.490200
C1121	C112	0.342000	0.596000	0.459200
C1131	C113	0.269200	0.574500	0.373800
C1141	C114	0.261300	0.593400	0.356400
C1151	C115	0.569500	0.694200	0.719600
C1161	C116	0.716800	0.776200	0.809200
C1171	C117	0.718100	0.787900	0.868600
C1181	C118	0.669100	0.752300	0.803200
C1191	C119	0.646600	0.735900	0.768200
C1201	C120	0.594500	0.712100	0.757800
C1211	C121	0.565000	0.704800	0.782500
C1221	C122	0.587500	0.721300	0.817400
C1231	C123	0.639600	0.745100	0.827800
C1241	C124	0.438300	0.645500	0.610800
C1251	C125	0.745700	0.797000	0.843400
C1261	C126	0.256300	0.587900	0.492100
C1271	C127	0.290200	0.587700	0.463600
C1281	C128	0.666600	0.765900	0.865100
C1291	C129	0.806200	0.903800	0.966900
C1301	C130	0.807700	0.865000	0.945600
C1311	C131	0.389300	0.951800	0.371500
C1321	C132	0.411400	0.921900	0.372400
C1331	C133	0.372300	0.906100	0.386900
C1341	C134	0.311000	0.920200	0.400500
C1351	C135	0.288900	0.950100	0.399600
C1361	C136	0.328000	0.965900	0.385100
C1371	C137	0.393000	0.876000	0.385800
C1381	C138	0.342000	0.863200	0.404000
C1391	C139	0.269200	0.799300	0.425500
C1401	C140	0.261300	0.763000	0.406600
C1411	C141	0.569500	0.025400	0.305800
C1421	C142	0.716800	0.033000	0.223800
C1431	C143	0.718100	0.080700	0.212100
C1441	C144	0.669100	0.050900	0.247700
C1451	C145	0.646600	0.032300	0.264100
C1461	C146	0.594500	0.045700	0.287900
C1471	C147	0.565000	0.077700	0.295200
C1481	C148	0.587500	0.096100	0.278700
C1491	C149	0.639600	0.082700	0.254900
C1501	C150	0.438300	0.965300	0.354500
C1511	C151	0.745700	0.046400	0.203000
C1521	C152	0.256300	0.904200	0.412100
C1531	C153	0.290200	0.875900	0.412300
C1541	C154	0.666600	0.099200	0.234100
C1551	C155	0.806200	0.063100	0.096200
C1561	C156	0.807700	0.080600	0.135000
C1571	C157	0.110700	0.628500	0.048200
C1581	C158	0.088600	0.627600	0.078100
C1591	C159	0.127700	0.613100	0.093900
C1601	C160	0.189000	0.599500	0.079800
C1611	C161	0.211100	0.600400	0.049900
C1621	C162	0.172000	0.614900	0.034100
C1631	C163	0.107000	0.614200	0.124000
C1641	C164	0.158000	0.596000	0.136800
C1651	C165	0.230800	0.574500	0.200700
C1661	C166	0.238700	0.593400	0.237000
C1671	C167	0.930500	0.694200	0.974600
C1681	C168	0.783200	0.776200	0.967000
C1691	C169	0.781900	0.787900	0.919300
C1701	C170	0.830900	0.752300	0.949100
C1711	C171	0.853400	0.735900	0.967700
C1721	C172	0.905500	0.712100	0.954300
C1731	C173	0.935000	0.704800	0.922300
C1741	C174	0.912500	0.721300	0.903900
C1751	C175	0.860400	0.745100	0.917300
C1761	C176	0.061700	0.645500	0.034700
C1771	C177	0.754300	0.797000	0.953600
C1781	C178	0.243700	0.587900	0.095800
C1791	C179	0.209800	0.587700	0.124100
C1801	C180	0.833400	0.765900	0.900800
C1811	C181	0.693800	0.903800	0.936900
C1821	C182	0.692300	0.865000	0.919400
C1831	C183	0.110700	0.951800	0.580300
C1841	C184	0.088600	0.921900	0.549500
C1851	C185	0.127700	0.906100	0.519200
C1861	C186	0.189000	0.920200	0.519700
C1871	C187	0.211100	0.950100	0.550500
C1881	C188	0.172000	0.965900	0.580800
C1891	C189	0.107000	0.876000	0.490200
C1901	C190	0.158000	0.863200	0.459200
C1911	C191	0.230800	0.799300	0.373800
C1921	C192	0.238700	0.763000	0.356400
C1931	C193	0.930500	0.025400	0.719600
C1941	C194	0.783200	0.033000	0.809200
C1951	C195	0.781900	0.080700	0.868600
C1961	C196	0.830900	0.050900	0.803200
C1971	C197	0.853400	0.032300	0.768200
C1981	C198	0.905500	0.045700	0.757800
C1991	C199	0.935000	0.077700	0.782500
C2001	C200	0.912500	0.096100	0.817400
C2011	C201	0.860400	0.082700	0.827800
C2021	C202	0.061700	0.965300	0.610800
C2031	C203	0.754300	0.046400	0.843400
C2041	C204	0.243700	0.904200	0.492100
C2051	C205	0.209800	0.875900	0.463600
C2061	C206	0.833400	0.099200	0.865100
C2071	C207	0.693800	0.063100	0.966900
C2081	C208	0.692300	0.080600	0.945600
C2091	C209	0.110700	0.419700	0.371500
C2101	C210	0.088600	0.450500	0.372400
C2111	C211	0.127700	0.480800	0.386900
C2121	C212	0.189000	0.480300	0.400500
C2131	C213	0.211100	0.449500	0.399600
C2141	C214	0.172000	0.419200	0.385100
C2151	C215	0.107000	0.509800	0.385800
C2161	C216	0.158000	0.540800	0.404000
C2171	C217	0.230800	0.626200	0.425500
C2181	C218	0.238700	0.643600	0.406600
C2191	C219	0.930500	0.280400	0.305800
C2201	C220	0.783200	0.190800	0.223800
C2211	C221	0.781900	0.131400	0.212100
C2221	C222	0.830900	0.196800	0.247700
C2231	C223	0.853400	0.231800	0.264100
C2241	C224	0.905500	0.242200	0.287900
C2251	C225	0.935000	0.217500	0.295200
C2261	C226	0.912500	0.182600	0.278700
C2271	C227	0.860400	0.172200	0.254900
C2281	C228	0.061700	0.389200	0.354500
C2291	C229	0.754300	0.156600	0.203000
C2301	C230	0.243700	0.507900	0.412100
C2311	C231	0.209800	0.536400	0.412300
C2321	C232	0.833400	0.134900	0.234100
C2331	C233	0.693800	0.033100	0.096200
C2341	C234	0.692300	0.054400	0.135000
C2351	C235	0.610700	0.371500	0.951800
C2361	C236	0.588600	0.372400	0.921900
C2371	C237	0.627700	0.386900	0.906100
C2381	C238	0.689000	0.400500	0.920200
C2391	C239	0.711100	0.399600	0.950100
C2401	C240	0.672000	0.385100	0.965900
C2411	C241	0.607000	0.385800	0.876000
C2421	C242	0.658000	0.404000	0.863200
C2431	C243	0.730800	0.425500	0.799300
C2441	C244	0.738700	0.406600	0.763000
C2451	C245	0.430500	0.305800	0.025400
C2461	C246	0.283200	0.223800	0.033000
C2471	C247	0.281900	0.212100	0.080700
C2481	C248	0.330900	0.247700	0.050900
C2491	C249	0.353400	0.264100	0.032300
C2501	C250	0.405500	0.287900	0.045700
C2511	C251	0.435000	0.295200	0.077700
C2521	C252	0.412500	0.278700	0.096100
C2531	C253	0.360400	0.254900	0.082700
C2541	C254	0.561700	0.354500	0.965300
C2551	C255	0.254300	0.203000	0.046400
C2561	C256	0.743700	0.412100	0.904200
C2571	C257	0.709800	0.412300	0.875900
C2581	C258	0.333400	0.234100	0.099200
C2591	C259	0.193800	0.096200	0.063100
C2601	C260	0.192300	0.135000	0.080600
C2611	C261	0.610700	0.048200	0.419700
C2621	C262	0.588600	0.078100	0.450500
C2631	C263	0.627700	0.093900	0.480800
C2641	C264	0.689000	0.079800	0.480300
C2651	C265	0.711100	0.049900	0.449500
C2661	C266	0.672000	0.034100	0.419200
C2671	C267	0.607000	0.124000	0.509800
C2681	C268	0.658000	0.136800	0.540800
C2691	C269	0.730800	0.200700	0.626200
C2701	C270	0.738700	0.237000	0.643600
C2711	C271	0.430500	0.974600	0.280400
C2721	C272	0.283200	0.967000	0.190800
C2731	C273	0.281900	0.919300	0.131400
C2741	C274	0.330900	0.949100	0.196800
C2751	C275	0.353400	0.967700	0.231800
C2761	C276	0.405500	0.954300	0.242200
C2771	C277	0.435000	0.922300	0.217500
C2781	C278	0.412500	0.903900	0.182600
C2791	C279	0.360400	0.917300	0.172200
C2801	C280	0.561700	0.034700	0.389200
C2811	C281	0.254300	0.953600	0.156600
C2821	C282	0.743700	0.095800	0.507900
C2831	C283	0.709800	0.124100	0.536400
C2841	C284	0.333400	0.900800	0.134900
C2851	C285	0.193800	0.936900	0.033100
C2861	C286	0.192300	0.919400	0.054400
C2871	C287	0.610700	0.580300	0.628500
C2881	C288	0.588600	0.549500	0.627600
C2891	C289	0.627700	0.519200	0.613100
C2901	C290	0.689000	0.519700	0.599500
C2911	C291	0.711100	0.550500	0.600400
C2921	C292	0.672000	0.580800	0.614900
C2931	C293	0.607000	0.490200	0.614200
C2941	C294	0.658000	0.459200	0.596000
C2951	C295	0.730800	0.373800	0.574500
C2961	C296	0.738700	0.356400	0.593400
C2971	C297	0.430500	0.719600	0.694200
C2981	C298	0.283200	0.809200	0.776200
C2991	C299	0.281900	0.868600	0.787900
C3001	C300	0.330900	0.803200	0.752300
C3011	C301	0.353400	0.768200	0.735900
C3021	C302	0.405500	0.757800	0.712100
C3031	C303	0.435000	0.782500	0.704800
C3041	C304	0.412500	0.817400	0.721300
C3051	C305	0.360400	0.827800	0.745100
C3061	C306	0.561700	0.610800	0.645500
C3071	C307	0.254300	0.843400	0.797000
C3081	C308	0.743700	0.492100	0.587900
C3091	C309	0.709800	0.463600	0.587700
C3101	C310	0.333400	0.865100	0.765900
C3111	C311	0.193800	0.966900	0.903800
C3121	C312	0.192300	0.945600	0.865000
C3131	C313	0.750000	0.411200	0.822400
C3141	C314	0.750000	0.370400	0.740800
C3151	C315	0.750000	0.350200	0.700400
C3161	C316	0.750000	0.411200	0.588800
C3171	C317	0.750000	0.370400	0.629600
C3181	C318	0.750000	0.350200	0.649800
C3191	C319	0.750000	0.177600	0.588800
C3201	C320	0.750000	0.259200	0.629600
C3211	C321	0.750000	0.299600	0.649800
C3221	C322	0.250000	0.588800	0.177600
C3231	C323	0.250000	0.629600	0.259200
C3241	C324	0.250000	0.649800	0.299600
C3251	C325	0.250000	0.588800	0.411200
C3261	C326	0.250000	0.629600	0.370400
C3271	C327	0.250000	0.649800	0.350200
C3281	C328	0.250000	0.822400	0.411200
C3291	C329	0.250000	0.740800	0.370400
C3301	C330	0.250000	0.700400	0.350200
C3311	C331	0.750000	0.312300	0.687700
C3321	C332	0.750000	0.375400	0.687700
C3331	C333	0.750000	0.312300	0.624600
C3341	C334	0.250000	0.687700	0.312300
C3351	C335	0.250000	0.624600	0.312300
C3361	C336	0.250000	0.687700	0.375400
C3371	C337	0.250000	0.960100	0.039900
C3381	C338	0.250000	0.980150	0.019850
C3391	C339	0.250000	0.925000	0.075000
C3401	C340	0.250000	0.079800	0.039900
C3411	C341	0.250000	0.039700	0.019850
C3421	C342	0.250000	0.150000	0.075000
C3431	C343	0.250000	0.960100	0.920200
C3441	C344	0.250000	0.980150	0.960300
C3451	C345	0.250000	0.925000	0.850000
C3461	C346	0.750000	0.039900	0.960100
C3471	C347	0.750000	0.019850	0.980150
C3481	C348	0.750000	0.075000	0.925000
C3491	C349	0.750000	0.920200	0.960100
C3501	C350	0.750000	0.960300	0.980150
C3511	C351	0.750000	0.850000	0.925000
C3521	C352	0.750000	0.039900	0.079800
C3531	C353	0.750000	0.019850	0.039700
C3541	C354	0.750000	0.075000	0.150000
C3551	C355	0.250000	0.019200	0.038400
C3561	C356	0.250000	0.019200	0.980800
C3571	C357	0.250000	0.961600	0.980800
C3581	C358	0.750000	0.980800	0.961600
C3591	C359	0.750000	0.980800	0.019200
C3601	C360	0.750000	0.038400	0.019200
N11	N1	0.750000	0.429200	0.858400
N21	N2	0.750000	0.429200	0.570800
N31	N3	0.750000	0.141600	0.570800
N41	N4	0.250000	0.570800	0.141600
N51	N5	0.250000	0.570800	0.429200
N61	N6	0.250000	0.858400	0.429200
N71	N7	0.250000	0.904900	0.095100
N81	N8	0.250000	0.190200	0.095100
N91	N9	0.250000	0.904900	0.809800
N101	N10	0.750000	0.095100	0.904900
N111	N11	0.750000	0.809800	0.904900
N121	N12	0.750000	0.095100	0.190200
O11	O1	0.015300	0.723000	0.046000
O21	O2	0.098400	0.697300	0.995000
O31	O3	0.904500	0.636300	0.997800
O41	O4	0.999200	0.611600	0.954000
O51	O5	0.015300	0.323000	0.277000
O61	O6	0.098400	0.297700	0.302700
O71	O7	0.904500	0.361500	0.363700
O81	O8	0.999200	0.342400	0.388400
O91	O9	0.015300	0.954000	0.677000
O101	O10	0.098400	0.005000	0.702300
O111	O11	0.904500	0.002200	0.638500
O121	O12	0.999200	0.046000	0.657600
O131	O13	0.515300	0.277000	0.954000
O141	O14	0.598400	0.302700	0.005000
O151	O15	0.404500	0.363700	0.002200
O161	O16	0.499200	0.388400	0.046000
O171	O17	0.515300	0.677000	0.723000
O181	O18	0.598400	0.702300	0.697300
O191	O19	0.404500	0.638500	0.636300
O201	O20	0.499200	0.657600	0.611600
O211	O21	0.515300	0.046000	0.323000
O221	O22	0.598400	0.995000	0.297700
O231	O23	0.404500	0.997800	0.361500
O241	O24	0.499200	0.954000	0.342400
O251	O25	0.984700	0.677000	0.954000
O261	O26	0.901600	0.702300	0.005000
O271	O27	0.095500	0.638500	0.002200
O281	O28	0.000800	0.657600	0.046000
O291	O29	0.984700	0.046000	0.723000
O301	O30	0.901600	0.995000	0.697300
O311	O31	0.095500	0.997800	0.636300
O321	O32	0.000800	0.954000	0.611600
O331	O33	0.984700	0.277000	0.323000
O341	O34	0.901600	0.302700	0.297700
O351	O35	0.095500	0.363700	0.361500
O361	O36	0.000800	0.388400	0.342400
O371	O37	0.484700	0.323000	0.046000
O381	O38	0.401600	0.297700	0.995000
O391	O39	0.595500	0.361500	0.997800
O401	O40	0.500800	0.342400	0.954000
O411	O41	0.484700	0.954000	0.277000
O421	O42	0.401600	0.005000	0.302700
O431	O43	0.595500	0.002200	0.363700
O441	O44	0.500800	0.046000	0.388400
O451	O45	0.484700	0.723000	0.677000
O461	O46	0.401600	0.697300	0.702300
O471	O47	0.595500	0.636300	0.638500
O481	O48	0.500800	0.611600	0.657600
