data_VETVAS_manual_PM
_symmetry_space_group_name_H-M	'P1'
_cell_length_a	16.151200
_cell_length_b	16.153000
_cell_length_c	31.299100
_cell_angle_alpha	99.877000
_cell_angle_beta	99.842000
_cell_angle_gamma	96.672400
_symmetry_Int_Tables_number 1

loop_
_symmetry_equiv_pos_as_xyz
'x,y,z'

loop_
_atom_site_label
_atom_site_type_symbol
_atom_site_fract_x
_atom_site_fract_y
_atom_site_fract_z
Nd11	Nd1	0.857140	0.814310	0.800290
Nd21	Nd2	0.685770	0.643150	0.699730
Nd31	Nd3	0.520340	0.641220	0.586380
Nd41	Nd4	0.858850	0.979650	0.913630
Nd51	Nd5	0.142860	0.185690	0.199710
Nd61	Nd6	0.314230	0.356850	0.300270
Nd71	Nd7	0.479660	0.358780	0.413620
Nd81	Nd8	0.141150	0.020350	0.086370
H11	H1	0.516300	0.281500	0.837400
H21	H2	0.452400	0.365700	0.784400
H31	H3	0.301400	0.647500	0.807000
H41	H4	0.210800	0.701100	0.860100
H51	H5	0.133900	0.610200	0.007300
H61	H6	0.198100	0.524000	0.058800
H71	H7	0.476300	0.373000	0.069500
H81	H8	0.564800	0.319800	0.016400
H91	H9	0.395900	0.450200	0.902600
H101	H10	0.319200	0.504300	0.956400
H111	H11	0.324600	0.418700	0.741100
H121	H12	0.357700	0.452200	0.675400
H131	H13	0.507600	0.667000	0.743800
H141	H14	0.465600	0.639900	0.807800
H151	H15	0.220200	0.776100	0.970100
H161	H16	0.122100	0.868700	0.958900
H171	H17	0.952200	0.678300	0.878300
H181	H18	0.052000	0.583200	0.888100
H191	H19	0.421300	0.517000	0.114900
H201	H20	0.406400	0.481200	0.182900
H211	H21	0.208700	0.298800	0.121600
H221	H22	0.223700	0.335100	0.053900
H231	H23	0.648900	0.342700	0.901000
H241	H24	0.743400	0.246900	0.896600
H251	H25	0.594200	0.088900	0.950100
H261	H26	0.497500	0.188000	0.951800
H271	H27	0.450600	0.041300	0.836000
H281	H28	0.360400	0.098000	0.886200
H291	H29	0.136700	0.313000	0.885400
H301	H30	0.084300	0.407100	0.835600
H311	H31	0.096800	0.417000	0.664700
H321	H32	0.183900	0.359700	0.613400
H331	H33	0.404200	0.140300	0.614100
H341	H34	0.463200	0.051800	0.666100
H351	H35	0.305400	0.187800	0.775300
H361	H36	0.237000	0.264100	0.723700
H371	H37	0.144400	0.083400	0.868400
H381	H38	0.120400	0.043100	0.932900
H391	H39	0.292500	0.241500	0.005400
H401	H40	0.318100	0.282300	0.938900
H411	H41	0.972700	0.363600	0.701000
H421	H42	0.873900	0.456300	0.702600
H431	H43	0.043300	0.623600	0.798100
H441	H44	0.134300	0.523400	0.799500
H451	H45	0.418000	0.351100	0.631500
H461	H46	0.456400	0.382700	0.567400
H471	H47	0.258700	0.213300	0.495200
H481	H48	0.217100	0.176800	0.559700
H491	H49	0.491700	0.822000	0.711900
H501	H50	0.395000	0.920500	0.714200
H511	H51	0.678300	0.010400	0.785900
H521	H52	0.578800	0.104000	0.788000
H531	H53	0.221200	0.986400	0.664600
H541	H54	0.133200	0.049300	0.715300
H551	H55	0.853300	0.201200	0.694200
H561	H56	0.799400	0.290700	0.640200
H571	H57	0.890700	0.365100	0.493200
H581	H58	0.976900	0.303100	0.441900
H591	H59	0.129900	0.022500	0.431200
H601	H60	0.180400	0.935100	0.484900
H611	H61	0.051000	0.105000	0.597000
H621	H62	0.996900	0.183900	0.543800
H631	H63	0.860200	0.032400	0.691200
H641	H64	0.834500	0.992700	0.757200
H651	H65	0.050600	0.141500	0.824600
H661	H66	0.079800	0.179500	0.759400
H671	H67	0.724700	0.278400	0.530200
H681	H68	0.628700	0.375600	0.541300
H691	H69	0.819200	0.548000	0.621300
H701	H70	0.915800	0.449100	0.611500
H711	H71	0.985300	0.076700	0.385800
H721	H72	0.017900	0.091200	0.316500
H731	H73	0.200700	0.289800	0.380100
H741	H74	0.164400	0.274500	0.446500
H751	H75	0.157100	0.854300	0.599600
H761	H76	0.253200	0.761300	0.605300
H771	H77	0.412700	0.904700	0.550600
H781	H78	0.313700	0.004700	0.548400
H791	H79	0.483700	0.718500	0.162600
H801	H80	0.547600	0.634300	0.215600
H811	H81	0.698600	0.352500	0.193000
H821	H82	0.789200	0.298900	0.139900
H831	H83	0.866100	0.389800	0.992700
H841	H84	0.801900	0.476000	0.941200
H851	H85	0.523700	0.627000	0.930500
H861	H86	0.435200	0.680200	0.983600
H871	H87	0.604100	0.549800	0.097400
H881	H88	0.680800	0.495700	0.043600
H891	H89	0.675400	0.581300	0.258900
H901	H90	0.642300	0.547800	0.324600
H911	H91	0.492400	0.333000	0.256200
H921	H92	0.534400	0.360100	0.192200
H931	H93	0.779800	0.223900	0.029900
H941	H94	0.877900	0.131300	0.041100
H951	H95	0.047800	0.321700	0.121700
H961	H96	0.948000	0.416800	0.111900
H971	H97	0.578700	0.483000	0.885100
H981	H98	0.593600	0.518800	0.817100
H991	H99	0.791300	0.701200	0.878400
H1001	H100	0.776300	0.664900	0.946100
H1011	H101	0.351100	0.657300	0.099000
H1021	H102	0.256600	0.753100	0.103400
H1031	H103	0.405800	0.911100	0.049900
H1041	H104	0.502500	0.812000	0.048200
H1051	H105	0.549400	0.958700	0.164000
H1061	H106	0.639600	0.902000	0.113800
H1071	H107	0.863300	0.687000	0.114600
H1081	H108	0.915700	0.592900	0.164400
H1091	H109	0.903200	0.583000	0.335300
H1101	H110	0.816100	0.640300	0.386600
H1111	H111	0.595800	0.859700	0.385900
H1121	H112	0.536800	0.948200	0.333900
H1131	H113	0.694600	0.812200	0.224700
H1141	H114	0.763000	0.735900	0.276300
H1151	H115	0.855600	0.916600	0.131600
H1161	H116	0.879600	0.956900	0.067100
H1171	H117	0.707500	0.758500	0.994600
H1181	H118	0.681900	0.717700	0.061100
H1191	H119	0.027300	0.636400	0.299000
H1201	H120	0.126100	0.543700	0.297400
H1211	H121	0.956700	0.376400	0.201900
H1221	H122	0.865700	0.476600	0.200500
H1231	H123	0.582000	0.648900	0.368500
H1241	H124	0.543600	0.617300	0.432600
H1251	H125	0.741300	0.786700	0.504800
H1261	H126	0.782900	0.823200	0.440300
H1271	H127	0.508300	0.178000	0.288100
H1281	H128	0.605000	0.079500	0.285800
H1291	H129	0.321700	0.989600	0.214100
H1301	H130	0.421200	0.896000	0.212000
H1311	H131	0.778800	0.013600	0.335400
H1321	H132	0.866800	0.950700	0.284700
H1331	H133	0.146700	0.798800	0.305800
H1341	H134	0.200600	0.709300	0.359800
H1351	H135	0.109300	0.634900	0.506800
H1361	H136	0.023100	0.696900	0.558100
H1371	H137	0.870100	0.977500	0.568800
H1381	H138	0.819600	0.064900	0.515100
H1391	H139	0.949000	0.895000	0.403000
H1401	H140	0.003100	0.816100	0.456200
H1411	H141	0.139800	0.967600	0.308800
H1421	H142	0.165500	0.007300	0.242800
H1431	H143	0.949400	0.858500	0.175400
H1441	H144	0.920200	0.820500	0.240600
H1451	H145	0.275300	0.721600	0.469800
H1461	H146	0.371300	0.624400	0.458700
H1471	H147	0.180800	0.452000	0.378700
H1481	H148	0.084200	0.550900	0.388500
H1491	H149	0.014700	0.923300	0.614200
H1501	H150	0.982100	0.908800	0.683500
H1511	H151	0.799300	0.710200	0.619900
H1521	H152	0.835600	0.725500	0.553500
H1531	H153	0.842900	0.145700	0.400400
H1541	H154	0.746800	0.238700	0.394700
H1551	H155	0.587300	0.095300	0.449400
H1561	H156	0.686300	0.995300	0.451600
C11	C1	0.466700	0.356700	0.886200
C21	C2	0.485000	0.326700	0.844200
C31	C3	0.450400	0.373000	0.815000
C41	C4	0.410600	0.435000	0.839600
C51	C5	0.377800	0.505200	0.825000
C61	C6	0.332600	0.558000	0.848300
C71	C7	0.293900	0.626700	0.832900
C81	C8	0.244500	0.656900	0.861800
C91	C9	0.255600	0.604800	0.896100
C101	C10	0.210600	0.613500	0.931800
C111	C11	0.222900	0.573200	0.966900
C121	C12	0.179300	0.578900	0.003500
C131	C13	0.214700	0.531300	0.031800
C141	C14	0.281200	0.494000	0.014100
C151	C15	0.337600	0.449300	0.034200
C161	C16	0.404500	0.416000	0.016700
C171	C17	0.468400	0.377200	0.039200
C181	C18	0.516400	0.347200	0.010200
C191	C19	0.478700	0.365300	0.966900
C201	C20	0.499400	0.334400	0.926000
C211	C21	0.394600	0.524400	0.781400
C221	C22	0.361400	0.469600	0.741900
C231	C23	0.382100	0.489100	0.702900
C241	C24	0.437900	0.561800	0.703900
C251	C25	0.469600	0.617000	0.742900
C261	C26	0.446100	0.599500	0.781000
C271	C27	0.466700	0.575500	0.662200
C281	C28	0.146400	0.671100	0.929500
C291	C29	0.166700	0.756100	0.950900
C301	C30	0.108600	0.811000	0.944000
C311	C31	0.029300	0.782600	0.915000
C321	C32	0.007200	0.698500	0.895900
C331	C33	0.066400	0.641300	0.902200
C341	C34	0.973500	0.848700	0.907200
C351	C35	0.325600	0.428200	0.077800
C361	C36	0.378700	0.472100	0.116000
C371	C37	0.369800	0.450500	0.156500
C381	C38	0.308700	0.385100	0.158600
C391	C39	0.252600	0.342300	0.120300
C401	C40	0.261700	0.364200	0.080200
C411	C41	0.303700	0.362400	0.202400
C421	C42	0.562800	0.273200	0.924500
C431	C43	0.636400	0.289900	0.909800
C441	C44	0.692800	0.233600	0.907300
C451	C45	0.675700	0.155800	0.920600
C461	C46	0.604300	0.139200	0.938800
C471	C47	0.547300	0.198900	0.940100
C481	C48	0.738500	0.094700	0.917900
C491	C49	0.385100	0.105300	0.789400
C501	C50	0.408700	0.076600	0.829800
C511	C51	0.360500	0.108700	0.857300
C521	C52	0.309500	0.161200	0.836300
C531	C53	0.253900	0.209200	0.854500
C541	C54	0.209600	0.268900	0.837400
C551	C55	0.151200	0.316200	0.857500
C561	C56	0.120600	0.365900	0.829900
C571	C57	0.153100	0.344700	0.790400
C581	C58	0.127500	0.373200	0.750700
C591	C59	0.154800	0.347400	0.710200
C601	C60	0.136300	0.379100	0.670200
C611	C61	0.182900	0.347300	0.641900
C621	C62	0.231400	0.290700	0.662600
C631	C63	0.290700	0.245000	0.644500
C641	C64	0.338500	0.190300	0.664700
C651	C65	0.393300	0.140000	0.643000
C661	C66	0.426300	0.092600	0.671300
C671	C67	0.394200	0.116200	0.711000
C681	C68	0.416900	0.084100	0.749700
C691	C69	0.235100	0.186100	0.897900
C701	C70	0.174900	0.115200	0.896100
C711	C71	0.160400	0.092000	0.934400
C721	C72	0.201800	0.137200	0.974500
C731	C73	0.262800	0.209800	0.977400
C741	C74	0.278100	0.233600	0.937900
C751	C75	0.189300	0.112200	0.016100
C761	C76	0.066600	0.432700	0.749800
C771	C77	0.987000	0.416200	0.721500
C781	C78	0.928200	0.471800	0.721500
C791	C79	0.949800	0.551300	0.749800
C801	C80	0.027600	0.570100	0.778500
C811	C81	0.082400	0.510200	0.778400
C821	C82	0.886600	0.610100	0.749400
C831	C83	0.312200	0.264800	0.602000
C841	C84	0.384900	0.323100	0.603600
C851	C85	0.409100	0.340500	0.565800
C861	C86	0.363900	0.295700	0.525000
C871	C87	0.291900	0.239600	0.523400
C881	C88	0.264500	0.218900	0.561500
C891	C89	0.385200	0.311200	0.481400
C901	C90	0.479500	0.023600	0.750600
C911	C91	0.509600	0.878800	0.727600
C921	C92	0.452700	0.938100	0.728600
C931	C93	0.594500	0.905900	0.750500
C941	C94	0.620700	0.991100	0.771800
C951	C95	0.561300	0.047300	0.772100
C961	C96	0.656800	0.843100	0.750400
C971	C97	0.140900	0.033300	0.613600
C981	C98	0.174800	0.015900	0.657200
C991	C99	0.126500	0.050400	0.684700
C1001	C100	0.063500	0.088900	0.660200
C1011	C101	0.995300	0.122200	0.675400
C1021	C102	0.941700	0.166400	0.650900
C1031	C103	0.873100	0.207600	0.667800
C1041	C104	0.843400	0.256700	0.638500
C1051	C105	0.895000	0.244900	0.603600
C1061	C106	0.885600	0.287000	0.568500
C1071	C107	0.927200	0.274500	0.532200
C1081	C108	0.922000	0.319500	0.496600
C1091	C109	0.969500	0.285600	0.468600
C1101	C110	0.006800	0.219100	0.485700
C1111	C111	0.049900	0.161200	0.465200
C1121	C112	0.084000	0.093700	0.484000
C1131	C113	0.124400	0.030100	0.461300
C1141	C114	0.152800	0.983600	0.490500
C1151	C115	0.133700	0.021300	0.532100
C1161	C116	0.163800	0.000000	0.573100
C1171	C117	0.975400	0.106100	0.718800
C1181	C118	0.900100	0.053000	0.718100
C1191	C119	0.884300	0.030600	0.757600
C1201	C120	0.940300	0.063000	0.797100
C1211	C121	0.012500	0.118400	0.797400
C1221	C122	0.030400	0.140700	0.758600
C1231	C123	0.923400	0.034000	0.837700
C1241	C124	0.829800	0.354000	0.570900
C1251	C125	0.743800	0.332100	0.549200
C1261	C126	0.686500	0.390000	0.555900
C1271	C127	0.714800	0.468400	0.583900
C1281	C128	0.799900	0.492800	0.603800
C1291	C129	0.857700	0.433800	0.597500
C1301	C130	0.650600	0.528400	0.593100
C1311	C131	0.069400	0.173600	0.421900
C1321	C132	0.028700	0.120600	0.384400
C1331	C133	0.048500	0.128200	0.342800
C1341	C134	0.114300	0.191500	0.341200
C1351	C135	0.156500	0.246100	0.380800
C1361	C136	0.134900	0.237200	0.420100
C1371	C137	0.138700	0.199100	0.299100
C1381	C138	0.227000	0.937700	0.574500
C1391	C139	0.209600	0.865900	0.590400
C1401	C140	0.266400	0.810300	0.593300
C1411	C141	0.341900	0.822600	0.579500
C1421	C142	0.361500	0.895400	0.561300
C1431	C143	0.301900	0.954500	0.559600
C1441	C144	0.405600	0.760300	0.582300
C1451	C145	0.533300	0.643300	0.113800
C1461	C146	0.515000	0.673300	0.155800
C1471	C147	0.549600	0.627000	0.185000
C1481	C148	0.589400	0.565000	0.160400
C1491	C149	0.622200	0.494800	0.175000
C1501	C150	0.667400	0.442000	0.151700
C1511	C151	0.706100	0.373300	0.167100
C1521	C152	0.755500	0.343100	0.138200
C1531	C153	0.744400	0.395200	0.103900
C1541	C154	0.789400	0.386500	0.068200
C1551	C155	0.777100	0.426800	0.033100
C1561	C156	0.820700	0.421100	0.996500
C1571	C157	0.785300	0.468700	0.968200
C1581	C158	0.718800	0.506000	0.985900
C1591	C159	0.662400	0.550700	0.965800
C1601	C160	0.595500	0.584000	0.983300
C1611	C161	0.531600	0.622800	0.960800
C1621	C162	0.483600	0.652800	0.989800
C1631	C163	0.521300	0.634700	0.033100
C1641	C164	0.500600	0.665600	0.074000
C1651	C165	0.605400	0.475600	0.218600
C1661	C166	0.638600	0.530400	0.258100
C1671	C167	0.617900	0.510900	0.297100
C1681	C168	0.562100	0.438200	0.296100
C1691	C169	0.530400	0.383000	0.257100
C1701	C170	0.553900	0.400500	0.219000
C1711	C171	0.533300	0.424500	0.337800
C1721	C172	0.853600	0.328900	0.070500
C1731	C173	0.833300	0.243900	0.049100
C1741	C174	0.891400	0.189000	0.056000
C1751	C175	0.970700	0.217400	0.085000
C1761	C176	0.992800	0.301500	0.104100
C1771	C177	0.933600	0.358700	0.097800
C1781	C178	0.026500	0.151300	0.092800
C1791	C179	0.674400	0.571800	0.922200
C1801	C180	0.621300	0.527900	0.884000
C1811	C181	0.630200	0.549500	0.843500
C1821	C182	0.691300	0.614900	0.841400
C1831	C183	0.747400	0.657700	0.879700
C1841	C184	0.738300	0.635800	0.919800
C1851	C185	0.696300	0.637600	0.797600
C1861	C186	0.437200	0.726800	0.075500
C1871	C187	0.363600	0.710100	0.090200
C1881	C188	0.307200	0.766400	0.092700
C1891	C189	0.324300	0.844200	0.079400
C1901	C190	0.395700	0.860800	0.061200
C1911	C191	0.452700	0.801100	0.059900
C1921	C192	0.261500	0.905300	0.082100
C1931	C193	0.614900	0.894700	0.210600
C1941	C194	0.591300	0.923400	0.170200
C1951	C195	0.639500	0.891300	0.142700
C1961	C196	0.690500	0.838800	0.163700
C1971	C197	0.746100	0.790800	0.145500
C1981	C198	0.790400	0.731100	0.162600
C1991	C199	0.848800	0.683800	0.142500
C2001	C200	0.879400	0.634100	0.170100
C2011	C201	0.846900	0.655300	0.209600
C2021	C202	0.872500	0.626800	0.249300
C2031	C203	0.845200	0.652600	0.289800
C2041	C204	0.863700	0.620900	0.329800
C2051	C205	0.817100	0.652700	0.358100
C2061	C206	0.768600	0.709300	0.337400
C2071	C207	0.709300	0.755000	0.355500
C2081	C208	0.661500	0.809700	0.335300
C2091	C209	0.606700	0.860000	0.357000
C2101	C210	0.573700	0.907400	0.328700
C2111	C211	0.605800	0.883800	0.289000
C2121	C212	0.583100	0.915900	0.250300
C2131	C213	0.764900	0.813900	0.102100
C2141	C214	0.825100	0.884800	0.103900
C2151	C215	0.839600	0.908000	0.065600
C2161	C216	0.798200	0.862800	0.025500
C2171	C217	0.737200	0.790200	0.022600
C2181	C218	0.721900	0.766400	0.062100
C2191	C219	0.810700	0.887800	0.983900
C2201	C220	0.933400	0.567300	0.250200
C2211	C221	0.013000	0.583800	0.278500
C2221	C222	0.071800	0.528200	0.278500
C2231	C223	0.050200	0.448700	0.250200
C2241	C224	0.972400	0.429900	0.221500
C2251	C225	0.917600	0.489800	0.221600
C2261	C226	0.113400	0.389900	0.250600
C2271	C227	0.687800	0.735200	0.398000
C2281	C228	0.615100	0.676900	0.396400
C2291	C229	0.590900	0.659500	0.434200
C2301	C230	0.636100	0.704300	0.475000
C2311	C231	0.708100	0.760400	0.476600
C2321	C232	0.735500	0.781100	0.438500
C2331	C233	0.614800	0.688800	0.518600
C2341	C234	0.520500	0.976400	0.249400
C2351	C235	0.490400	0.121200	0.272400
C2361	C236	0.547300	0.061900	0.271400
C2371	C237	0.405500	0.094100	0.249500
C2381	C238	0.379300	0.008900	0.228200
C2391	C239	0.438700	0.952700	0.227900
C2401	C240	0.343200	0.156900	0.249600
C2411	C241	0.859100	0.966700	0.386400
C2421	C242	0.825200	0.984100	0.342800
C2431	C243	0.873500	0.949600	0.315300
C2441	C244	0.936500	0.911100	0.339800
C2451	C245	0.004700	0.877800	0.324600
C2461	C246	0.058300	0.833600	0.349100
C2471	C247	0.126900	0.792400	0.332200
C2481	C248	0.156600	0.743300	0.361500
C2491	C249	0.105000	0.755100	0.396400
C2501	C250	0.114400	0.713000	0.431500
C2511	C251	0.072800	0.725500	0.467800
C2521	C252	0.078000	0.680500	0.503400
C2531	C253	0.030500	0.714400	0.531400
C2541	C254	0.993200	0.780900	0.514300
C2551	C255	0.950100	0.838800	0.534800
C2561	C256	0.916000	0.906300	0.516000
C2571	C257	0.875600	0.969900	0.538700
C2581	C258	0.847200	0.016400	0.509500
C2591	C259	0.866300	0.978700	0.467900
C2601	C260	0.836200	0.000000	0.426900
C2611	C261	0.024600	0.893900	0.281200
C2621	C262	0.099900	0.947000	0.281900
C2631	C263	0.115700	0.969400	0.242400
C2641	C264	0.059700	0.937000	0.202900
C2651	C265	0.987500	0.881600	0.202600
C2661	C266	0.969600	0.859300	0.241400
C2671	C267	0.076600	0.966000	0.162300
C2681	C268	0.170200	0.646000	0.429100
C2691	C269	0.256200	0.667900	0.450800
C2701	C270	0.313500	0.610000	0.444100
C2711	C271	0.285200	0.531600	0.416100
C2721	C272	0.200100	0.507200	0.396200
C2731	C273	0.142300	0.566200	0.402500
C2741	C274	0.349400	0.471600	0.406900
C2751	C275	0.930600	0.826400	0.578100
C2761	C276	0.971300	0.879400	0.615600
C2771	C277	0.951500	0.871800	0.657200
C2781	C278	0.885700	0.808500	0.658800
C2791	C279	0.843500	0.753900	0.619200
C2801	C280	0.865100	0.762800	0.579900
C2811	C281	0.861300	0.800900	0.700900
C2821	C282	0.773000	0.062300	0.425500
C2831	C283	0.790400	0.134100	0.409600
C2841	C284	0.733600	0.189700	0.406700
C2851	C285	0.658100	0.177400	0.420500
C2861	C286	0.638500	0.104600	0.438700
C2871	C287	0.698100	0.045500	0.440400
C2881	C288	0.594400	0.239700	0.417700
N11	N1	0.417900	0.422200	0.881700
N21	N2	0.309900	0.548700	0.888800
N31	N3	0.284500	0.519400	0.974200
N41	N4	0.414400	0.414700	0.973500
N51	N5	0.327300	0.159300	0.794800
N61	N6	0.209400	0.286500	0.795700
N71	N7	0.214400	0.292500	0.704200
N81	N8	0.339300	0.174000	0.705900
N91	N9	0.077800	0.082100	0.617800
N101	N10	0.951700	0.191500	0.611400
N111	N11	0.980800	0.217300	0.525500
N121	N12	0.085500	0.085200	0.527100
N131	N13	0.582100	0.577800	0.118300
N141	N14	0.690100	0.451300	0.111200
N151	N15	0.715500	0.480600	0.025800
N161	N16	0.585600	0.585300	0.026500
N171	N17	0.672700	0.840700	0.205200
N181	N18	0.790600	0.713500	0.204300
N191	N19	0.785600	0.707500	0.295800
N201	N20	0.660700	0.826000	0.294100
N211	N21	0.922200	0.917900	0.382200
N221	N22	0.048300	0.808500	0.388600
N231	N23	0.019200	0.782700	0.474500
N241	N24	0.914500	0.914800	0.472900
O11	O1	0.536000	0.627500	0.666800
O21	O2	0.425500	0.539800	0.625200
O31	O3	0.905300	0.824200	0.879500
O41	O4	0.995300	0.922900	0.926100
O51	O5	0.249800	0.296900	0.202500
O61	O6	0.350700	0.407000	0.235800
O71	O7	0.787700	0.096300	0.891900
O81	O8	0.741100	0.039800	0.943500
O91	O9	0.222700	0.142000	0.050500
O101	O10	0.128300	0.051500	0.012000
O111	O11	0.910800	0.684600	0.774700
O121	O12	0.815700	0.589400	0.725700
O131	O13	0.447700	0.369500	0.486600
O141	O14	0.355800	0.271200	0.447500
O151	O15	0.630700	0.768700	0.729900
O161	O16	0.731700	0.871000	0.770900
O171	O17	0.873500	0.964800	0.833600
O181	O18	0.961200	0.075400	0.875400
O191	O19	0.677000	0.596700	0.621400
O201	O20	0.577300	0.503900	0.573200
O211	O21	0.202500	0.250200	0.297100
O221	O22	0.093800	0.149800	0.264200
O231	O23	0.459300	0.759100	0.555500
O241	O24	0.404300	0.712800	0.608900
O251	O25	0.464000	0.372500	0.333200
O261	O26	0.574500	0.460200	0.374800
O271	O27	0.094700	0.175800	0.120500
O281	O28	0.004700	0.077100	0.073900
O291	O29	0.750200	0.703100	0.797500
O301	O30	0.649300	0.593000	0.764200
O311	O31	0.212300	0.903700	0.108100
O321	O32	0.258900	0.960200	0.056500
O331	O33	0.777300	0.858000	0.949500
O341	O34	0.871700	0.948500	0.988000
O351	O35	0.089200	0.315400	0.225300
O361	O36	0.184300	0.410600	0.274300
O371	O37	0.552300	0.630500	0.513400
O381	O38	0.644200	0.728800	0.552500
O391	O39	0.369300	0.231300	0.270100
O401	O40	0.268300	0.129000	0.229100
O411	O41	0.126500	0.035200	0.166400
O421	O42	0.038800	0.924600	0.124600
O431	O43	0.323000	0.403300	0.378600
O441	O44	0.422700	0.496100	0.426800
O451	O45	0.797500	0.749800	0.702900
O461	O46	0.906200	0.850200	0.735800
O471	O47	0.540700	0.240900	0.444500
O481	O48	0.595700	0.287200	0.391100
