data_VEWKUF_clean_PM
_symmetry_space_group_name_H-M	'P1'
_cell_length_a	20.653600
_cell_length_b	20.792600
_cell_length_c	33.497400
_cell_angle_alpha	90.000000
_cell_angle_beta	90.000000
_cell_angle_gamma	118.619000
_symmetry_Int_Tables_number 1

loop_
_symmetry_equiv_pos_as_xyz
'x,y,z'

loop_
_atom_site_label
_atom_site_type_symbol
_atom_site_fract_x
_atom_site_fract_y
_atom_site_fract_z
Zn11	Zn1	0.652710	0.817260	0.001920
Zn21	Zn2	0.842930	0.188730	0.939920
Zn31	Zn3	0.749120	0.001870	0.969940
Zn41	Zn4	0.347190	0.182620	0.501740
Zn51	Zn5	0.156870	0.811030	0.439800
Zn61	Zn6	0.251140	0.997890	0.470290
C71	C7	0.793200	0.133630	0.013310
C81	C8	0.792450	0.140690	0.057120
C91	C9	0.851150	0.199150	0.076860
C101	C10	0.854860	0.200820	0.118480
C111	C11	0.799300	0.144820	0.141360
C121	C12	0.738670	0.088480	0.121480
C131	C13	0.735400	0.086350	0.079860
C141	C14	0.286980	0.921180	0.413270
C151	C15	0.359380	0.946680	0.394050
C161	C16	0.389140	0.898910	0.388670
C171	C17	0.460770	0.925260	0.373940
C181	C18	0.503970	0.999900	0.364660
C191	C19	0.473500	0.047030	0.369670
C201	C20	0.401840	0.020540	0.383680
C211	C21	0.298750	0.129880	0.427640
C221	C22	0.300630	0.136270	0.383740
C231	C23	0.241590	0.084950	0.360890
C241	C24	0.244560	0.087760	0.319330
C251	C25	0.307410	0.141100	0.299390
C261	C26	0.366480	0.192890	0.322510
C271	C27	0.362720	0.190990	0.364170
C281	C28	0.783220	0.925100	0.028860
C291	C29	0.854320	0.951640	0.049890
C301	C30	0.885140	0.905160	0.056300
C311	C31	0.956850	0.933280	0.071210
C321	C32	0.998960	0.008340	0.080150
C331	C33	0.966490	0.053770	0.075520
C341	C34	0.895000	0.025710	0.060790
C351	C35	0.077530	0.040380	0.092350
C361	C36	0.123340	0.015320	0.075310
C371	C37	0.198170	0.048100	0.084930
C381	C38	0.230620	0.109000	0.111130
C391	C39	0.183260	0.132240	0.128860
C401	C40	0.108220	0.098560	0.119690
C411	C41	0.805130	0.144730	0.185640
C421	C42	0.838300	0.210820	0.207000
C431	C43	0.843800	0.211150	0.248490
C441	C44	0.816950	0.145080	0.270340
C451	C45	0.781840	0.078840	0.248570
C461	C46	0.777090	0.078640	0.207010
C471	C47	0.850780	0.221360	0.334740
C481	C48	0.927730	0.267740	0.331290
C491	C49	0.962010	0.338410	0.347780
C501	C50	0.920290	0.365860	0.367680
C511	C51	0.843810	0.320330	0.370730
C521	C52	0.810120	0.249060	0.355820
C531	C53	0.731960	0.098520	0.327910
C541	C54	0.682330	0.119380	0.310680
C551	C55	0.702100	0.037620	0.354140
C561	C56	0.313560	0.147250	0.123270
C571	C57	0.352470	0.105700	0.105380
C581	C58	0.365680	0.110130	0.063840
C591	C59	0.400520	0.074520	0.046050
C601	C60	0.424710	0.033850	0.069070
C611	C61	0.413000	0.029550	0.110470
C621	C62	0.378380	0.065650	0.128470
C631	C63	0.356130	0.227010	0.106620
C641	C64	0.321860	0.262430	0.086390
C651	C65	0.363250	0.333700	0.071430
C661	C66	0.440460	0.371930	0.075420
C671	C67	0.475010	0.336800	0.095050
C681	C68	0.433890	0.265700	0.109900
C691	C69	0.485100	0.447610	0.058840
C701	C70	0.458090	0.498280	0.059110
C711	C71	0.500970	0.569590	0.044340
C721	C72	0.572110	0.592370	0.029030
C731	C73	0.598740	0.541540	0.028260
C741	C74	0.555800	0.470200	0.042810
C751	C75	0.310780	0.142890	0.254850
C761	C76	0.271480	0.078630	0.232260
C771	C77	0.351830	0.209230	0.234390
C781	C78	0.580850	0.029680	0.350200
C791	C79	0.608470	0.085870	0.321730
C801	C80	0.628010	0.004750	0.365660
C811	C81	0.815090	0.142550	0.316700
C821	C82	0.859380	0.105830	0.333910
C831	C83	0.869250	0.106130	0.375630
C841	C84	0.906510	0.072210	0.392890
C851	C85	0.937510	0.038450	0.369050
C861	C86	0.931140	0.040690	0.327400
C871	C87	0.893580	0.074470	0.310060
C881	C88	0.978260	0.003100	0.387470
C891	C89	0.977960	0.941580	0.369640
C901	C90	0.466080	0.000140	0.050080
C911	C91	0.459340	0.933290	0.063810
C921	C92	0.315260	0.147110	0.169730
C931	C93	0.353940	0.211460	0.192780
C941	C94	0.272390	0.080970	0.190610
C951	C95	0.605490	0.918880	0.002290
C961	C96	0.502540	0.905000	0.047210
C971	C97	0.552730	0.942770	0.016380
C981	C98	0.556760	0.007530	0.001480
C991	C99	0.514810	0.036390	0.018470
C1001	C100	0.109450	0.912410	0.436460
C1011	C101	0.019090	0.910840	0.385980
C1021	C102	0.060730	0.940340	0.420790
C1031	C103	0.059030	0.999980	0.439400
C1041	C104	0.018890	0.031360	0.422810
C1051	C105	0.955280	0.440950	0.385740
C1061	C106	0.925560	0.454860	0.420530
C1071	C107	0.955110	0.525630	0.436420
C1081	C108	0.016530	0.584410	0.418580
C1091	C109	0.047560	0.570400	0.384470
C1101	C110	0.017150	0.499780	0.368110
C1111	C111	0.618310	0.668930	0.014510
C1121	C112	0.048720	0.659920	0.435320
C1131	C113	0.207110	0.865750	0.513180
C1141	C114	0.208230	0.859430	0.557020
C1151	C115	0.149410	0.801250	0.576710
C1161	C116	0.145420	0.799630	0.618280
C1171	C117	0.200860	0.855570	0.641230
C1181	C118	0.261580	0.911990	0.621410
C1191	C119	0.265120	0.914080	0.579780
C1201	C120	0.712730	0.079080	0.913470
C1211	C121	0.640300	0.053450	0.894260
C1221	C122	0.610620	0.101210	0.888740
C1231	C123	0.539140	0.074880	0.873860
C1241	C124	0.495970	0.000250	0.864530
C1251	C125	0.526460	0.953140	0.869570
C1261	C126	0.598040	0.979630	0.883720
C1271	C127	0.701780	0.869570	0.927810
C1281	C128	0.700130	0.863870	0.883920
C1291	C129	0.758900	0.915470	0.860950
C1301	C130	0.755470	0.912500	0.819380
C1311	C131	0.692370	0.858940	0.799630
C1321	C132	0.633440	0.807570	0.822970
C1331	C133	0.637760	0.809530	0.864550
C1341	C134	0.216560	0.075150	0.528710
C1351	C135	0.145560	0.048610	0.549780
C1361	C136	0.114830	0.095080	0.556330
C1371	C137	0.043270	0.066960	0.571400
C1381	C138	0.001210	0.991880	0.580340
C1391	C139	0.033720	0.946500	0.575690
C1401	C140	0.105120	0.974600	0.560840
C1411	C141	0.922550	0.959760	0.592390
C1421	C142	0.876800	0.984800	0.575240
C1431	C143	0.801950	0.952030	0.584760
C1441	C144	0.769430	0.891150	0.610960
C1451	C145	0.816670	0.867820	0.628740
C1461	C146	0.891720	0.901480	0.619660
C1471	C147	0.194930	0.855450	0.685540
C1481	C148	0.161740	0.789280	0.706860
C1491	C149	0.156190	0.788880	0.748370
C1501	C150	0.182990	0.854920	0.770250
C1511	C151	0.218130	0.921190	0.748510
C1521	C152	0.222940	0.921460	0.706950
C1531	C153	0.149180	0.778610	0.834680
C1541	C154	0.072230	0.732230	0.831250
C1551	C155	0.037960	0.661580	0.847760
C1561	C156	0.079690	0.634150	0.867670
C1571	C157	0.156160	0.679700	0.870730
C1581	C158	0.189840	0.750950	0.855790
C1591	C159	0.267910	0.901490	0.827870
C1601	C160	0.317540	0.880640	0.810640
C1611	C161	0.297750	0.962380	0.854100
C1621	C162	0.686560	0.852980	0.623060
C1631	C163	0.647620	0.894400	0.605170
C1641	C164	0.634340	0.889900	0.563630
C1651	C165	0.599460	0.925500	0.545880
C1661	C166	0.575330	0.966200	0.568950
C1671	C167	0.587060	0.970440	0.610340
C1681	C168	0.621830	0.934490	0.628280
C1691	C169	0.643940	0.773080	0.606730
C1701	C170	0.678100	0.737630	0.586440
C1711	C171	0.636670	0.666350	0.571510
C1721	C172	0.559470	0.628150	0.575550
C1731	C173	0.525010	0.663310	0.595250
C1741	C174	0.566220	0.734380	0.610160
C1751	C175	0.514800	0.552470	0.558950
C1761	C176	0.541860	0.501830	0.559150
C1771	C177	0.499020	0.430540	0.544350
C1781	C178	0.427880	0.407720	0.529070
C1791	C179	0.401190	0.458540	0.528320
C1801	C180	0.444100	0.529870	0.542920
C1811	C181	0.688660	0.856150	0.755070
C1821	C182	0.728040	0.920240	0.732260
C1831	C183	0.647350	0.789090	0.735200
C1841	C184	0.419030	0.970420	0.850110
C1851	C185	0.391410	0.914200	0.821660
C1861	C186	0.371840	0.995280	0.865620
C1871	C187	0.184800	0.857420	0.816640
C1881	C188	0.140510	0.894080	0.833870
C1891	C189	0.130660	0.893790	0.875600
C1901	C190	0.093450	0.927760	0.892860
C1911	C191	0.062540	0.961600	0.869000
C1921	C192	0.068850	0.959290	0.827360
C1931	C193	0.106360	0.925490	0.810020
C1941	C194	0.021970	0.997060	0.887390
C1951	C195	0.022310	0.058610	0.869550
C1961	C196	0.534070	0.000000	0.550030
C1971	C197	0.540840	0.066860	0.563790
C1981	C198	0.684750	0.853140	0.669390
C1991	C199	0.644340	0.785470	0.693740
C2001	C200	0.727580	0.918560	0.690610
C2011	C201	0.394070	0.080390	0.502620
C2021	C202	0.497420	0.095020	0.547280
C2031	C203	0.447060	0.057040	0.516580
C2041	C204	0.443310	0.992450	0.501520
C2051	C205	0.485340	0.963730	0.518460
C2061	C206	0.890160	0.086810	0.936180
C2071	C207	0.980970	0.089220	0.885850
C2081	C208	0.939100	0.059440	0.920550
C2091	C209	0.941090	0.000000	0.939270
C2101	C210	0.981350	0.968780	0.922710
C2111	C211	0.044700	0.559060	0.885720
C2121	C212	0.074430	0.545140	0.920520
C2131	C213	0.044870	0.474370	0.936410
C2141	C214	0.983430	0.415590	0.918570
C2151	C215	0.952410	0.429610	0.884470
C2161	C216	0.982830	0.500220	0.868100
C2171	C217	0.381720	0.331160	0.514510
C2181	C218	0.951300	0.340070	0.935310
O2191	O219	0.347950	0.181190	0.448520
O2201	O220	0.246920	0.073390	0.444260
O2211	O221	0.249340	0.854250	0.422710
O2221	O222	0.263610	0.966520	0.420920
O2231	O223	0.150040	0.943940	0.466520
O2241	O224	0.109180	0.856820	0.420220
O2251	O225	0.609120	0.867010	0.020260
O2261	O226	0.647850	0.952150	0.972910
O2271	O227	0.743030	0.076170	0.996460
O2281	O228	0.843150	0.185400	0.992960
O2291	O229	0.744990	0.857360	0.020390
O2301	O230	0.761220	0.970920	0.019360
O2311	O231	0.115620	0.714810	0.420590
O2321	O232	0.595490	0.721340	0.020890
O2331	O233	0.676680	0.686670	0.997590
O2341	O234	0.017760	0.674080	0.462170
O2351	O235	0.652400	0.818440	0.948640
O2361	O236	0.753530	0.925820	0.944510
O2371	O237	0.750230	0.145900	0.923130
O2381	O238	0.736370	0.033710	0.920740
O2391	O239	0.849410	0.054590	0.966120
O2401	O240	0.890310	0.142630	0.920340
O2411	O241	0.390510	0.132640	0.520130
O2421	O242	0.351450	0.046210	0.473460
O2431	O243	0.257240	0.922830	0.496160
O2441	O244	0.156900	0.814170	0.492920
O2451	O245	0.254660	0.142780	0.519920
O2461	O246	0.238690	0.029160	0.519530
O2471	O247	0.884420	0.285070	0.920580
O2481	O248	0.404480	0.278670	0.520840
O2491	O249	0.323390	0.313470	0.497570
O2501	O250	0.982320	0.325980	0.962160
H2511	H251	0.895540	0.242670	0.060230
H2521	H252	0.902630	0.244920	0.132570
H2531	H253	0.693680	0.045620	0.138020
H2541	H254	0.688670	0.041440	0.065480
H2551	H255	0.357730	0.841490	0.396560
H2561	H256	0.482160	0.887250	0.369860
H2571	H257	0.505670	0.105110	0.363630
H2581	H258	0.380570	0.058580	0.387420
H2591	H259	0.192830	0.042380	0.375120
H2601	H260	0.196960	0.048140	0.303000
H2611	H261	0.416420	0.234350	0.308670
H2621	H262	0.409150	0.231500	0.381000
H2631	H263	0.854880	0.847570	0.048640
H2641	H264	0.979630	0.896410	0.075160
H2651	H265	0.997360	0.111830	0.081740
H2661	H266	0.872680	0.062810	0.056650
H2671	H267	0.101730	0.971000	0.053810
H2681	H268	0.229130	0.024370	0.071370
H2691	H269	0.204820	0.177380	0.149830
H2701	H270	0.074180	0.118310	0.134070
H2711	H271	0.858340	0.262840	0.191800
H2721	H272	0.866860	0.263910	0.262920
H2731	H273	0.757730	0.026680	0.264030
H2741	H274	0.751410	0.026400	0.191730
H2751	H275	0.961390	0.248780	0.315670
H2761	H276	0.021340	0.370890	0.345370
H2771	H277	0.809130	0.339600	0.384790
H2781	H278	0.751900	0.216810	0.361520
H2791	H279	0.701670	0.164390	0.289680
H2801	H280	0.734860	0.014930	0.366640
H2811	H281	0.348280	0.141190	0.044870
H2821	H282	0.408570	0.079170	0.014030
H2831	H283	0.432750	0.000240	0.129300
H2841	H284	0.373970	0.062430	0.160530
H2851	H285	0.263200	0.235840	0.081240
H2861	H286	0.334460	0.358160	0.055920
H2871	H287	0.534120	0.364480	0.099480
H2881	H288	0.462970	0.240640	0.124580
H2891	H289	0.404260	0.483390	0.071430
H2901	H290	0.478370	0.607020	0.045080
H2911	H291	0.653200	0.556990	0.016680
H2921	H292	0.578000	0.432500	0.041210
H2931	H293	0.240030	0.025940	0.246570
H2941	H294	0.381280	0.260460	0.250340
H2951	H295	0.573170	0.105120	0.308380
H2961	H296	0.608330	0.961170	0.387610
H2971	H297	0.846110	0.131410	0.395150
H2981	H298	0.909950	0.071780	0.425110
H2991	H299	0.956560	0.017590	0.307940
H3001	H300	0.893040	0.076010	0.277900
H3011	H301	0.945990	0.916970	0.342990
H3021	H302	0.421320	0.903160	0.087640
H3031	H303	0.385060	0.264830	0.179470
H3041	H304	0.239930	0.030380	0.174430
H3051	H305	0.497600	0.854360	0.059060
H3061	H306	0.594550	0.037780	0.977690
H3071	H307	0.522680	0.088710	0.007700
H3081	H308	0.019180	0.864680	0.371060
H3091	H309	0.090100	0.023630	0.466480
H3101	H310	0.021410	0.079020	0.437290
H3111	H311	0.879470	0.410840	0.435820
H3121	H312	0.929940	0.534050	0.462870
H3131	H313	0.094970	0.614370	0.370020
H3141	H314	0.041380	0.491780	0.341170
H3151	H315	0.105050	0.757970	0.559970
H3161	H316	0.097570	0.755450	0.632280
H3171	H317	0.306450	0.954830	0.638030
H3181	H318	0.311820	0.959240	0.565500
H3191	H319	0.642150	0.158710	0.896480
H3201	H320	0.517730	0.112870	0.869720
H3211	H321	0.494290	0.895070	0.863520
H3221	H322	0.619540	0.941720	0.887280
H3231	H323	0.807750	0.958340	0.875020
H3241	H324	0.802970	0.951910	0.802890
H3251	H325	0.583230	0.766070	0.809380
H3261	H326	0.591480	0.769400	0.881590
H3271	H327	0.145160	0.152730	0.548760
H3281	H328	0.020460	0.103800	0.575400
H3291	H329	0.002930	0.888440	0.581940
H3301	H330	0.127710	0.937670	0.556840
H3311	H331	0.898450	0.029130	0.553740
H3321	H332	0.770980	0.975720	0.571150
H3331	H333	0.794950	0.822620	0.649660
H3341	H334	0.925620	0.881630	0.634100
H3351	H335	0.141700	0.737290	0.691620
H3361	H336	0.133120	0.736110	0.762790
H3371	H337	0.242230	0.973330	0.763960
H3381	H338	0.248620	0.973700	0.691690
H3391	H339	0.038560	0.751200	0.815660
H3401	H340	0.978620	0.629110	0.845370
H3411	H341	0.190840	0.660440	0.884800
H3421	H342	0.248050	0.783230	0.861510
H3431	H343	0.298190	0.835600	0.789670
H3441	H344	0.264950	0.985040	0.866610
H3451	H345	0.651820	0.858910	0.544640
H3461	H346	0.591340	0.920880	0.513870
H3471	H347	0.567240	0.999630	0.629220
H3481	H348	0.626510	0.937910	0.660330
H3491	H349	0.736730	0.764250	0.581160
H3501	H350	0.665420	0.641900	0.555960
H3511	H351	0.465890	0.635690	0.599660
H3521	H352	0.537220	0.759540	0.624840
H3531	H353	0.595720	0.516720	0.571430
H3541	H354	0.521640	0.393130	0.545040
H3551	H355	0.346740	0.443080	0.516730
H3561	H356	0.421880	0.567560	0.541330
H3571	H357	0.759540	0.972880	0.746590
H3581	H358	0.618370	0.738310	0.751610
H3591	H359	0.426670	0.894930	0.808310
H3601	H360	0.391470	0.038820	0.887600
H3611	H361	0.153870	0.868600	0.895130
H3621	H362	0.090030	0.928230	0.925080
H3631	H363	0.043480	0.982440	0.807900
H3641	H364	0.106980	0.924020	0.777870
H3651	H365	0.054270	0.083140	0.842900
H3661	H366	0.578840	0.096920	0.587620
H3671	H367	0.613710	0.731950	0.680450
H3681	H368	0.760310	0.969410	0.674710
H3691	H369	0.502280	0.145650	0.559160
H3701	H370	0.405610	0.962190	0.477730
H3711	H371	0.477300	0.911380	0.507700
H3721	H372	0.980930	0.135450	0.870940
H3731	H373	0.910140	0.976370	0.966340
H3741	H374	0.978720	0.921100	0.937180
H3751	H375	0.120540	0.589140	0.935800
H3761	H376	0.070040	0.465940	0.962860
H3771	H377	0.905010	0.385630	0.870010
H3781	H378	0.958610	0.508210	0.841160
