data_VEXYON_charged_PM
_symmetry_space_group_name_H-M	'P1'
_cell_length_a	18.595000
_cell_length_b	18.595000
_cell_length_c	18.595000
_cell_angle_alpha	90.000000
_cell_angle_beta	90.000000
_cell_angle_gamma	90.000000
_symmetry_Int_Tables_number 1

loop_
_symmetry_equiv_pos_as_xyz
'x,y,z'

loop_
_atom_site_label
_atom_site_type_symbol
_atom_site_fract_x
_atom_site_fract_y
_atom_site_fract_z
Cu11	Cu1	0.500000	0.863070	0.000000
Cu21	Cu2	0.500000	0.136930	0.000000
Cu31	Cu3	0.000000	0.500000	0.863070
Cu41	Cu4	0.000000	0.500000	0.136930
Cu51	Cu5	0.863070	0.000000	0.500000
Cu61	Cu6	0.136930	0.000000	0.500000
Cu71	Cu7	0.863070	0.500000	0.000000
Cu81	Cu8	0.136930	0.500000	0.000000
Cu91	Cu9	0.500000	0.000000	0.136930
Cu101	Cu10	0.500000	0.000000	0.863070
Cu111	Cu11	0.000000	0.863070	0.500000
Cu121	Cu12	0.000000	0.136930	0.500000
H11	H1	0.739000	0.739000	0.107600
H21	H2	0.261000	0.261000	0.107600
H31	H3	0.261000	0.739000	0.892400
H41	H4	0.739000	0.261000	0.892400
H51	H5	0.107600	0.739000	0.739000
H61	H6	0.107600	0.261000	0.261000
H71	H7	0.892400	0.261000	0.739000
H81	H8	0.892400	0.739000	0.261000
H91	H9	0.739000	0.107600	0.739000
H101	H10	0.261000	0.107600	0.261000
H111	H11	0.739000	0.892400	0.261000
H121	H12	0.261000	0.892400	0.739000
H131	H13	0.739000	0.739000	0.892400
H141	H14	0.261000	0.261000	0.892400
H151	H15	0.739000	0.261000	0.107600
H161	H16	0.261000	0.739000	0.107600
H171	H17	0.739000	0.107600	0.261000
H181	H18	0.261000	0.107600	0.739000
H191	H19	0.261000	0.892400	0.261000
H201	H20	0.739000	0.892400	0.739000
H211	H21	0.107600	0.739000	0.261000
H221	H22	0.107600	0.261000	0.739000
H231	H23	0.892400	0.739000	0.739000
H241	H24	0.892400	0.261000	0.261000
C11	C1	0.663800	0.851500	0.148500
C21	C2	0.727700	0.819500	0.180500
C31	C3	0.336200	0.148500	0.148500
C41	C4	0.272300	0.180500	0.180500
C51	C5	0.336200	0.851500	0.851500
C61	C6	0.272300	0.819500	0.819500
C71	C7	0.663800	0.148500	0.851500
C81	C8	0.727700	0.180500	0.819500
C91	C9	0.148500	0.663800	0.851500
C101	C10	0.180500	0.727700	0.819500
C111	C11	0.148500	0.336200	0.148500
C121	C12	0.180500	0.272300	0.180500
C131	C13	0.851500	0.336200	0.851500
C141	C14	0.819500	0.272300	0.819500
C151	C15	0.851500	0.663800	0.148500
C161	C16	0.819500	0.727700	0.180500
C171	C17	0.851500	0.148500	0.663800
C181	C18	0.819500	0.180500	0.727700
C191	C19	0.148500	0.148500	0.336200
C201	C20	0.180500	0.180500	0.272300
C211	C21	0.851500	0.851500	0.336200
C221	C22	0.819500	0.819500	0.272300
C231	C23	0.148500	0.851500	0.663800
C241	C24	0.180500	0.819500	0.727700
C251	C25	0.851500	0.663800	0.851500
C261	C26	0.819500	0.727700	0.819500
C271	C27	0.148500	0.336200	0.851500
C281	C28	0.180500	0.272300	0.819500
C291	C29	0.851500	0.336200	0.148500
C301	C30	0.819500	0.272300	0.180500
C311	C31	0.148500	0.663800	0.148500
C321	C32	0.180500	0.727700	0.180500
C331	C33	0.663800	0.148500	0.148500
C341	C34	0.727700	0.180500	0.180500
C351	C35	0.336200	0.148500	0.851500
C361	C36	0.272300	0.180500	0.819500
C371	C37	0.336200	0.851500	0.148500
C381	C38	0.272300	0.819500	0.180500
C391	C39	0.663800	0.851500	0.851500
C401	C40	0.727700	0.819500	0.819500
C411	C41	0.148500	0.851500	0.336200
C421	C42	0.180500	0.819500	0.272300
C431	C43	0.148500	0.148500	0.663800
C441	C44	0.180500	0.180500	0.727700
C451	C45	0.851500	0.851500	0.663800
C461	C46	0.819500	0.819500	0.727700
C471	C47	0.851500	0.148500	0.336200
C481	C48	0.819500	0.180500	0.272300
C491	C49	0.758700	0.758700	0.149100
C501	C50	0.241300	0.241300	0.149100
C511	C51	0.241300	0.758700	0.850900
C521	C52	0.758700	0.241300	0.850900
C531	C53	0.149100	0.758700	0.758700
C541	C54	0.149100	0.241300	0.241300
C551	C55	0.850900	0.241300	0.758700
C561	C56	0.850900	0.758700	0.241300
C571	C57	0.758700	0.149100	0.758700
C581	C58	0.241300	0.149100	0.241300
C591	C59	0.758700	0.850900	0.241300
C601	C60	0.241300	0.850900	0.758700
C611	C61	0.758700	0.758700	0.850900
C621	C62	0.241300	0.241300	0.850900
C631	C63	0.758700	0.241300	0.149100
C641	C64	0.241300	0.758700	0.149100
C651	C65	0.758700	0.149100	0.241300
C661	C66	0.241300	0.149100	0.758700
C671	C67	0.241300	0.850900	0.241300
C681	C68	0.758700	0.850900	0.758700
C691	C69	0.149100	0.758700	0.241300
C701	C70	0.149100	0.241300	0.758700
C711	C71	0.850900	0.758700	0.758700
C721	C72	0.850900	0.241300	0.241300
N11	N1	0.574960	0.869910	0.079200
N21	N2	0.630460	0.825300	0.089300
N31	N3	0.425040	0.130090	0.079200
N41	N4	0.369540	0.174700	0.089300
N51	N5	0.425040	0.869910	0.920800
N61	N6	0.369540	0.825300	0.910700
N71	N7	0.574960	0.130090	0.920800
N81	N8	0.630460	0.174700	0.910700
N91	N9	0.079200	0.574960	0.869910
N101	N10	0.089300	0.630460	0.825300
N111	N11	0.079200	0.425040	0.130090
N121	N12	0.089300	0.369540	0.174700
N131	N13	0.920800	0.425040	0.869910
N141	N14	0.910700	0.369540	0.825300
N151	N15	0.920800	0.574960	0.130090
N161	N16	0.910700	0.630460	0.174700
N171	N17	0.869910	0.079200	0.574960
N181	N18	0.825300	0.089300	0.630460
N191	N19	0.130090	0.079200	0.425040
N201	N20	0.174700	0.089300	0.369540
N211	N21	0.869910	0.920800	0.425040
N221	N22	0.825300	0.910700	0.369540
N231	N23	0.130090	0.920800	0.574960
N241	N24	0.174700	0.910700	0.630460
N251	N25	0.869910	0.574960	0.920800
N261	N26	0.825300	0.630460	0.910700
N271	N27	0.130090	0.425040	0.920800
N281	N28	0.174700	0.369540	0.910700
N291	N29	0.869910	0.425040	0.079200
N301	N30	0.825300	0.369540	0.089300
N311	N31	0.130090	0.574960	0.079200
N321	N32	0.174700	0.630460	0.089300
N331	N33	0.574960	0.079200	0.130090
N341	N34	0.630460	0.089300	0.174700
N351	N35	0.425040	0.079200	0.869910
N361	N36	0.369540	0.089300	0.825300
N371	N37	0.425040	0.920800	0.130090
N381	N38	0.369540	0.910700	0.174700
N391	N39	0.574960	0.920800	0.869910
N401	N40	0.630460	0.910700	0.825300
N411	N41	0.079200	0.869910	0.425040
N421	N42	0.089300	0.825300	0.369540
N431	N43	0.079200	0.130090	0.574960
N441	N44	0.089300	0.174700	0.630460
N451	N45	0.920800	0.869910	0.574960
N461	N46	0.910700	0.825300	0.630460
N471	N47	0.920800	0.130090	0.425040
N481	N48	0.910700	0.174700	0.369540
N491	N49	0.425040	0.130090	0.920800
N501	N50	0.369540	0.174700	0.910700
N511	N51	0.574960	0.869910	0.920800
N521	N52	0.630460	0.825300	0.910700
N531	N53	0.574960	0.130090	0.079200
N541	N54	0.630460	0.174700	0.089300
N551	N55	0.425040	0.869910	0.079200
N561	N56	0.369540	0.825300	0.089300
N571	N57	0.920800	0.425040	0.130090
N581	N58	0.910700	0.369540	0.174700
N591	N59	0.920800	0.574960	0.869910
N601	N60	0.910700	0.630460	0.825300
N611	N61	0.079200	0.574960	0.130090
N621	N62	0.089300	0.630460	0.174700
N631	N63	0.079200	0.425040	0.869910
N641	N64	0.089300	0.369540	0.825300
N651	N65	0.130090	0.920800	0.425040
N661	N66	0.174700	0.910700	0.369540
N671	N67	0.869910	0.920800	0.574960
N681	N68	0.825300	0.910700	0.630460
N691	N69	0.130090	0.079200	0.574960
N701	N70	0.174700	0.089300	0.630460
N711	N71	0.869910	0.079200	0.425040
N721	N72	0.825300	0.089300	0.369540
N731	N73	0.130090	0.425040	0.079200
N741	N74	0.174700	0.369540	0.089300
N751	N75	0.869910	0.574960	0.079200
N761	N76	0.825300	0.630460	0.089300
N771	N77	0.130090	0.574960	0.920800
N781	N78	0.174700	0.630460	0.910700
N791	N79	0.869910	0.425040	0.920800
N801	N80	0.825300	0.369540	0.910700
N811	N81	0.425040	0.920800	0.869910
N821	N82	0.369540	0.910700	0.825300
N831	N83	0.574960	0.920800	0.130090
N841	N84	0.630460	0.910700	0.174700
N851	N85	0.574960	0.079200	0.869910
N861	N86	0.630460	0.089300	0.825300
N871	N87	0.425040	0.079200	0.130090
N881	N88	0.369540	0.089300	0.174700
N891	N89	0.920800	0.130090	0.574960
N901	N90	0.910700	0.174700	0.630460
N911	N91	0.920800	0.869910	0.425040
N921	N92	0.910700	0.825300	0.369540
N931	N93	0.079200	0.130090	0.425040
N941	N94	0.089300	0.174700	0.369540
N951	N95	0.079200	0.869910	0.574960
N961	N96	0.089300	0.825300	0.630460
Cl11	Cl1	0.500000	0.000000	0.000000
Cl21	Cl2	0.000000	0.500000	0.000000
Cl31	Cl3	0.000000	0.000000	0.500000
O11	O1	0.500000	0.743600	0.000000
O21	O2	0.500000	0.256400	0.000000
O31	O3	0.000000	0.500000	0.743600
O41	O4	0.000000	0.500000	0.256400
O51	O5	0.743600	0.000000	0.500000
O61	O6	0.256400	0.000000	0.500000
O71	O7	0.743600	0.500000	0.000000
O81	O8	0.256400	0.500000	0.000000
O91	O9	0.500000	0.000000	0.256400
O101	O10	0.500000	0.000000	0.743600
O111	O11	0.000000	0.743600	0.500000
O121	O12	0.000000	0.256400	0.500000
