data_VEZMIY_clean_PM
_symmetry_space_group_name_H-M	'P1'
_cell_length_a	20.609000
_cell_length_b	20.609000
_cell_length_c	28.314000
_cell_angle_alpha	90.000000
_cell_angle_beta	90.000000
_cell_angle_gamma	120.000000
_symmetry_Int_Tables_number 1

loop_
_symmetry_equiv_pos_as_xyz
'x,y,z'

loop_
_atom_site_label
_atom_site_type_symbol
_atom_site_fract_x
_atom_site_fract_y
_atom_site_fract_z
K11	K1	0.752830	0.147990	0.952170
K21	K2	0.193050	0.922190	0.870020
K31	K3	0.517220	0.576200	0.866860
K41	K4	0.395160	0.247170	0.618840
K51	K5	0.729140	0.806950	0.536690
K61	K6	0.058980	0.482780	0.533530
K71	K7	0.852010	0.604840	0.285500
K81	K8	0.077810	0.270860	0.203350
K91	K9	0.423800	0.941020	0.200190
K101	K10	0.247170	0.852010	0.452170
K111	K11	0.806950	0.077810	0.370020
K121	K12	0.482780	0.423800	0.366860
K131	K13	0.604840	0.752830	0.118840
K141	K14	0.270860	0.193050	0.036690
K151	K15	0.941020	0.517220	0.033530
K161	K16	0.147990	0.395160	0.785500
K171	K17	0.922190	0.729140	0.703350
K181	K18	0.576200	0.058980	0.700190
Cd11	Cd1	0.667000	0.110660	0.824890
Cd21	Cd2	0.231980	0.001130	0.998280
Cd31	Cd3	0.334110	0.424240	0.824770
Cd41	Cd4	0.443660	0.333000	0.491560
Cd51	Cd5	0.769150	0.768020	0.664940
Cd61	Cd6	0.090130	0.665890	0.491440
Cd71	Cd7	0.889340	0.556340	0.158220
Cd81	Cd8	0.998870	0.230850	0.331610
Cd91	Cd9	0.575760	0.909870	0.158100
Cd101	Cd10	0.333000	0.889340	0.324890
Cd111	Cd11	0.768020	0.998870	0.498280
Cd121	Cd12	0.665890	0.575760	0.324770
Cd131	Cd13	0.556340	0.667000	0.991560
Cd141	Cd14	0.230850	0.231980	0.164940
Cd151	Cd15	0.909870	0.334110	0.991440
Cd161	Cd16	0.110660	0.443660	0.658220
Cd171	Cd17	0.001130	0.769150	0.831610
Cd181	Cd18	0.424240	0.090130	0.658100
H11	H1	0.872600	0.311200	0.730000
H21	H2	0.843200	0.373100	0.600400
H31	H3	0.715600	0.309600	0.612400
H41	H4	0.662900	0.236500	0.679900
H51	H5	0.765800	0.966000	0.757500
H61	H6	0.896800	0.891400	0.811100
H71	H7	0.917800	0.962600	0.877100
H81	H8	0.864300	0.038200	0.885000
H91	H9	0.463900	0.120100	0.912300
H101	H10	0.672800	0.259900	0.959200
H111	H11	0.623600	0.282300	0.027400
H121	H12	0.492800	0.230300	0.034200
H131	H13	0.525400	0.626300	0.736000
H141	H14	0.512500	0.696700	0.606600
H151	H15	0.382400	0.638700	0.615100
H161	H16	0.325100	0.555600	0.677500
H171	H17	0.148500	0.444100	0.909700
H181	H18	0.350700	0.585700	0.963200
H191	H19	0.292700	0.618900	0.021800
H201	H20	0.162300	0.550800	0.028800
H211	H21	0.216000	0.191000	0.910000
H221	H22	0.109200	0.170200	0.790500
H231	H23	0.046600	0.044300	0.800000
H241	H24	0.069600	0.987400	0.863900
H251	H25	0.438600	0.127400	0.396670
H261	H26	0.529900	0.156800	0.267070
H271	H27	0.594000	0.284400	0.279070
H281	H28	0.573600	0.337100	0.346570
H291	H29	0.200200	0.234200	0.424170
H301	H30	0.994600	0.103200	0.477770
H311	H31	0.044800	0.082200	0.543770
H321	H32	0.173900	0.135700	0.551670
H331	H33	0.656200	0.536100	0.578970
H341	H34	0.587100	0.327200	0.625870
H351	H35	0.658700	0.376400	0.694070
H361	H36	0.737500	0.507200	0.700870
H371	H37	0.100900	0.474600	0.402670
H381	H38	0.184200	0.487500	0.273270
H391	H39	0.256300	0.617600	0.281770
H401	H40	0.230500	0.674900	0.344170
H411	H41	0.295600	0.851500	0.576370
H421	H42	0.235000	0.649300	0.629870
H431	H43	0.326200	0.707300	0.688470
H441	H44	0.388500	0.837700	0.695470
H451	H45	0.975000	0.784000	0.576670
H461	H46	0.061000	0.890800	0.457170
H471	H47	0.997700	0.953400	0.466670
H481	H48	0.917800	0.930400	0.530570
H491	H49	0.688800	0.561400	0.063330
H501	H50	0.626900	0.470100	0.933730
H511	H51	0.690400	0.406000	0.945730
H521	H52	0.763500	0.426400	0.013230
H531	H53	0.034000	0.799800	0.090830
H541	H54	0.108600	0.005400	0.144430
H551	H55	0.037400	0.955200	0.210430
H561	H56	0.961800	0.826100	0.218330
H571	H57	0.879900	0.343800	0.245630
H581	H58	0.740100	0.412900	0.292530
H591	H59	0.717700	0.341300	0.360730
H601	H60	0.769700	0.262500	0.367530
H611	H61	0.373700	0.899100	0.069330
H621	H62	0.303300	0.815800	0.939930
H631	H63	0.361300	0.743700	0.948430
H641	H64	0.444400	0.769500	0.010830
H651	H65	0.555900	0.704400	0.243030
H661	H66	0.414300	0.765000	0.296530
H671	H67	0.381100	0.673800	0.355130
H681	H68	0.449200	0.611500	0.362130
H691	H69	0.809000	0.025000	0.243330
H701	H70	0.829800	0.939000	0.123830
H711	H71	0.955700	0.002300	0.133330
H721	H72	0.012600	0.082200	0.197230
H731	H73	0.127400	0.688800	0.230000
H741	H74	0.156800	0.626900	0.100400
H751	H75	0.284400	0.690400	0.112400
H761	H76	0.337100	0.763500	0.179900
H771	H77	0.234200	0.034000	0.257500
H781	H78	0.103200	0.108600	0.311100
H791	H79	0.082200	0.037400	0.377100
H801	H80	0.135700	0.961800	0.385000
H811	H81	0.536100	0.879900	0.412300
H821	H82	0.327200	0.740100	0.459200
H831	H83	0.376400	0.717700	0.527400
H841	H84	0.507200	0.769700	0.534200
H851	H85	0.474600	0.373700	0.236000
H861	H86	0.487500	0.303300	0.106600
H871	H87	0.617600	0.361300	0.115100
H881	H88	0.674900	0.444400	0.177500
H891	H89	0.851500	0.555900	0.409700
H901	H90	0.649300	0.414300	0.463200
H911	H91	0.707300	0.381100	0.521800
H921	H92	0.837700	0.449200	0.528800
H931	H93	0.784000	0.809000	0.410000
H941	H94	0.890800	0.829800	0.290500
H951	H95	0.953400	0.955700	0.300000
H961	H96	0.930400	0.012600	0.363900
H971	H97	0.561400	0.872600	0.896670
H981	H98	0.470100	0.843200	0.767070
H991	H99	0.406000	0.715600	0.779070
H1001	H100	0.426400	0.662900	0.846570
H1011	H101	0.799800	0.765800	0.924170
H1021	H102	0.005400	0.896800	0.977770
H1031	H103	0.955200	0.917800	0.043770
H1041	H104	0.826100	0.864300	0.051670
H1051	H105	0.343800	0.463900	0.078970
H1061	H106	0.412900	0.672800	0.125870
H1071	H107	0.341300	0.623600	0.194070
H1081	H108	0.262500	0.492800	0.200870
H1091	H109	0.899100	0.525400	0.902670
H1101	H110	0.815800	0.512500	0.773270
H1111	H111	0.743700	0.382400	0.781770
H1121	H112	0.769500	0.325100	0.844170
H1131	H113	0.704400	0.148500	0.076370
H1141	H114	0.765000	0.350700	0.129870
H1151	H115	0.673800	0.292700	0.188470
H1161	H116	0.611500	0.162300	0.195470
H1171	H117	0.025000	0.216000	0.076670
H1181	H118	0.939000	0.109200	0.957170
H1191	H119	0.002300	0.046600	0.966670
H1201	H120	0.082200	0.069600	0.030570
H1211	H121	0.311200	0.438600	0.563330
H1221	H122	0.373100	0.529900	0.433730
H1231	H123	0.309600	0.594000	0.445730
H1241	H124	0.236500	0.573600	0.513230
H1251	H125	0.966000	0.200200	0.590830
H1261	H126	0.891400	0.994600	0.644430
H1271	H127	0.962600	0.044800	0.710430
H1281	H128	0.038200	0.173900	0.718330
H1291	H129	0.120100	0.656200	0.745630
H1301	H130	0.259900	0.587100	0.792530
H1311	H131	0.282300	0.658700	0.860730
H1321	H132	0.230300	0.737500	0.867530
H1331	H133	0.626300	0.100900	0.569330
H1341	H134	0.696700	0.184200	0.439930
H1351	H135	0.638700	0.256300	0.448430
H1361	H136	0.555600	0.230500	0.510830
H1371	H137	0.444100	0.295600	0.743030
H1381	H138	0.585700	0.235000	0.796530
H1391	H139	0.618900	0.326200	0.855130
H1401	H140	0.550800	0.388500	0.862130
H1411	H141	0.191000	0.975000	0.743330
H1421	H142	0.170200	0.061000	0.623830
H1431	H143	0.044300	0.997700	0.633330
H1441	H144	0.987400	0.917800	0.697230
C11	C1	0.841000	0.310200	0.706300
C21	C2	0.872800	0.351000	0.664300
C31	C3	0.823800	0.348000	0.628800
C41	C4	0.746700	0.308100	0.635600
C51	C5	0.714600	0.265800	0.676400
C61	C6	0.765300	0.269400	0.713000
C71	C7	0.954900	0.394700	0.658300
C81	C8	0.734300	0.220000	0.756200
C91	C9	0.795400	0.965100	0.782000
C101	C10	0.828700	0.921500	0.778100
C111	C11	0.874600	0.921000	0.814000
C121	C12	0.887100	0.963400	0.853300
C131	C13	0.854300	0.008300	0.858300
C141	C14	0.806200	0.008300	0.822900
C151	C15	0.809300	0.868700	0.735900
C161	C16	0.765600	0.052000	0.828600
C171	C17	0.495500	0.150500	0.936100
C181	C18	0.572900	0.183800	0.931700
C191	C19	0.621300	0.235500	0.964100
C201	C20	0.591800	0.250400	0.004100
C211	C21	0.513200	0.217000	0.009300
C221	C22	0.467200	0.163800	0.976200
C231	C23	0.602200	0.160300	0.891100
C241	C24	0.380900	0.119900	0.985800
C251	C25	0.496500	0.626300	0.710700
C261	C26	0.532800	0.670000	0.671200
C271	C27	0.489600	0.670800	0.634200
C281	C28	0.411200	0.632700	0.638100
C291	C29	0.377000	0.585700	0.676700
C301	C30	0.419600	0.583300	0.713800
C311	C31	0.615900	0.710900	0.666500
C321	C32	0.384900	0.530800	0.754200
C331	C33	0.177700	0.477000	0.933500
C341	C34	0.256600	0.512900	0.930100
C351	C35	0.298700	0.563200	0.964100
C361	C36	0.264100	0.581200	0.000300
C371	C37	0.185600	0.541400	0.003700
C381	C38	0.143300	0.489400	0.970600
C391	C39	0.289500	0.491100	0.891100
C401	C40	0.058900	0.441300	0.977100
C411	C41	0.182900	0.162400	0.890900
C421	C42	0.171600	0.196400	0.849600
C431	C43	0.119100	0.149600	0.816800
C441	C44	0.081700	0.073900	0.822600
C451	C45	0.094000	0.039200	0.861000
C461	C46	0.146100	0.087600	0.895800
C471	C47	0.220800	0.279500	0.844200
C481	C48	0.168700	0.054400	0.936400
C491	C49	0.469200	0.159000	0.372970
C501	C50	0.478200	0.127200	0.330970
C511	C51	0.524200	0.176200	0.295470
C521	C52	0.561400	0.253300	0.302270
C531	C53	0.551200	0.285400	0.343070
C541	C54	0.504100	0.234700	0.379670
C551	C55	0.439800	0.045100	0.324970
C561	C56	0.485700	0.265700	0.422870
C571	C57	0.169700	0.204600	0.448670
C581	C58	0.092800	0.171300	0.444770
C591	C59	0.046400	0.125400	0.480670
C601	C60	0.076300	0.112900	0.519970
C611	C61	0.154000	0.145700	0.524970
C621	C62	0.202100	0.193800	0.489570
C631	C63	0.059400	0.190700	0.402570
C641	C64	0.286400	0.234400	0.495270
C651	C65	0.655000	0.504500	0.602770
C661	C66	0.610900	0.427100	0.598370
C671	C67	0.614200	0.378700	0.630770
C681	C68	0.658600	0.408200	0.670770
C691	C69	0.703800	0.486800	0.675970
C701	C70	0.696600	0.532800	0.642870
C711	C71	0.558100	0.397800	0.557770
C721	C72	0.739000	0.619100	0.652470
C731	C73	0.129800	0.503500	0.377370
C741	C74	0.137200	0.467200	0.337870
C751	C75	0.181200	0.510400	0.300870
C761	C76	0.221500	0.588800	0.304770
C771	C77	0.208700	0.623000	0.343370
C781	C78	0.163700	0.580400	0.380470
C791	C79	0.095000	0.384100	0.333170
C801	C80	0.145900	0.615100	0.420870
C811	C81	0.299300	0.822300	0.600170
C821	C82	0.256300	0.743400	0.596770
C831	C83	0.264500	0.701300	0.630770
C841	C84	0.317100	0.735900	0.666970
C851	C85	0.355800	0.814400	0.670370
C861	C86	0.346100	0.856700	0.637270
C871	C87	0.201600	0.710500	0.557770
C881	C88	0.382400	0.941100	0.643770
C891	C89	0.979500	0.817100	0.557570
C901	C90	0.024800	0.828400	0.516270
C911	C91	0.030500	0.880900	0.483470
C921	C92	0.992200	0.918300	0.489270
C931	C93	0.945200	0.906000	0.527670
C941	C94	0.941500	0.853900	0.562470
C951	C95	0.058700	0.779200	0.510870
C961	C96	0.885700	0.831300	0.603070
C971	C97	0.689800	0.530800	0.039630
C981	C98	0.649000	0.521800	0.997630
C991	C99	0.652000	0.475800	0.962130
C1001	C100	0.691900	0.438600	0.968930
C1011	C101	0.734200	0.448800	0.009730
C1021	C102	0.730600	0.495900	0.046330
C1031	C103	0.605300	0.560200	0.991630
C1041	C104	0.780000	0.514300	0.089530
C1051	C105	0.034900	0.830300	0.115330
C1061	C106	0.078500	0.907200	0.111430
C1071	C107	0.079000	0.953600	0.147330
C1081	C108	0.036600	0.923700	0.186630
C1091	C109	0.991700	0.846000	0.191630
C1101	C110	0.991700	0.797900	0.156230
C1111	C111	0.131300	0.940600	0.069230
C1121	C112	0.948000	0.713600	0.161930
C1131	C113	0.849500	0.345000	0.269430
C1141	C114	0.816200	0.389100	0.265030
C1151	C115	0.764500	0.385800	0.297430
C1161	C116	0.749600	0.341400	0.337430
C1171	C117	0.783000	0.296200	0.342630
C1181	C118	0.836200	0.303400	0.309530
C1191	C119	0.839700	0.441900	0.224430
C1201	C120	0.880100	0.261000	0.319130
C1211	C121	0.373700	0.870200	0.044030
C1221	C122	0.330000	0.862800	0.004530
C1231	C123	0.329200	0.818800	0.967530
C1241	C124	0.367300	0.778500	0.971430
C1251	C125	0.414300	0.791300	0.010030
C1261	C126	0.416700	0.836300	0.047130
C1271	C127	0.289100	0.905000	0.999830
C1281	C128	0.469200	0.854100	0.087530
C1291	C129	0.523000	0.700700	0.266830
C1301	C130	0.487100	0.743700	0.263430
C1311	C131	0.436800	0.735500	0.297430
C1321	C132	0.418800	0.682900	0.333630
C1331	C133	0.458600	0.644200	0.337030
C1341	C134	0.510600	0.653900	0.303930
C1351	C135	0.508900	0.798400	0.224430
C1361	C136	0.558700	0.617600	0.310430
C1371	C137	0.837600	0.020500	0.224230
C1381	C138	0.803600	0.975200	0.182930
C1391	C139	0.850400	0.969500	0.150130
C1401	C140	0.926100	0.007800	0.155930
C1411	C141	0.960800	0.054800	0.194330
C1421	C142	0.912400	0.058500	0.229130
C1431	C143	0.720500	0.941300	0.177530
C1441	C144	0.945600	0.114300	0.269730
C1451	C145	0.159000	0.689800	0.206300
C1461	C146	0.127200	0.649000	0.164300
C1471	C147	0.176200	0.652000	0.128800
C1481	C148	0.253300	0.691900	0.135600
C1491	C149	0.285400	0.734200	0.176400
C1501	C150	0.234700	0.730600	0.213000
C1511	C151	0.045100	0.605300	0.158300
C1521	C152	0.265700	0.780000	0.256200
C1531	C153	0.204600	0.034900	0.282000
C1541	C154	0.171300	0.078500	0.278100
C1551	C155	0.125400	0.079000	0.314000
C1561	C156	0.112900	0.036600	0.353300
C1571	C157	0.145700	0.991700	0.358300
C1581	C158	0.193800	0.991700	0.322900
C1591	C159	0.190700	0.131300	0.235900
C1601	C160	0.234400	0.948000	0.328600
C1611	C161	0.504500	0.849500	0.436100
C1621	C162	0.427100	0.816200	0.431700
C1631	C163	0.378700	0.764500	0.464100
C1641	C164	0.408200	0.749600	0.504100
C1651	C165	0.486800	0.783000	0.509300
C1661	C166	0.532800	0.836200	0.476200
C1671	C167	0.397800	0.839700	0.391100
C1681	C168	0.619100	0.880100	0.485800
C1691	C169	0.503500	0.373700	0.210700
C1701	C170	0.467200	0.330000	0.171200
C1711	C171	0.510400	0.329200	0.134200
C1721	C172	0.588800	0.367300	0.138100
C1731	C173	0.623000	0.414300	0.176700
C1741	C174	0.580400	0.416700	0.213800
C1751	C175	0.384100	0.289100	0.166500
C1761	C176	0.615100	0.469200	0.254200
C1771	C177	0.822300	0.523000	0.433500
C1781	C178	0.743400	0.487100	0.430100
C1791	C179	0.701300	0.436800	0.464100
C1801	C180	0.735900	0.418800	0.500300
C1811	C181	0.814400	0.458600	0.503700
C1821	C182	0.856700	0.510600	0.470600
C1831	C183	0.710500	0.508900	0.391100
C1841	C184	0.941100	0.558700	0.477100
C1851	C185	0.817100	0.837600	0.390900
C1861	C186	0.828400	0.803600	0.349600
C1871	C187	0.880900	0.850400	0.316800
C1881	C188	0.918300	0.926100	0.322600
C1891	C189	0.906000	0.960800	0.361000
C1901	C190	0.853900	0.912400	0.395800
C1911	C191	0.779200	0.720500	0.344200
C1921	C192	0.831300	0.945600	0.436400
C1931	C193	0.530800	0.841000	0.872970
C1941	C194	0.521800	0.872800	0.830970
C1951	C195	0.475800	0.823800	0.795470
C1961	C196	0.438600	0.746700	0.802270
C1971	C197	0.448800	0.714600	0.843070
C1981	C198	0.495900	0.765300	0.879670
C1991	C199	0.560200	0.954900	0.824970
C2001	C200	0.514300	0.734300	0.922870
C2011	C201	0.830300	0.795400	0.948670
C2021	C202	0.907200	0.828700	0.944770
C2031	C203	0.953600	0.874600	0.980670
C2041	C204	0.923700	0.887100	0.019970
C2051	C205	0.846000	0.854300	0.024970
C2061	C206	0.797900	0.806200	0.989570
C2071	C207	0.940600	0.809300	0.902570
C2081	C208	0.713600	0.765600	0.995270
C2091	C209	0.345000	0.495500	0.102770
C2101	C210	0.389100	0.572900	0.098370
C2111	C211	0.385800	0.621300	0.130770
C2121	C212	0.341400	0.591800	0.170770
C2131	C213	0.296200	0.513200	0.175970
C2141	C214	0.303400	0.467200	0.142870
C2151	C215	0.441900	0.602200	0.057770
C2161	C216	0.261000	0.380900	0.152470
C2171	C217	0.870200	0.496500	0.877370
C2181	C218	0.862800	0.532800	0.837870
C2191	C219	0.818800	0.489600	0.800870
C2201	C220	0.778500	0.411200	0.804770
C2211	C221	0.791300	0.377000	0.843370
C2221	C222	0.836300	0.419600	0.880470
C2231	C223	0.905000	0.615900	0.833170
C2241	C224	0.854100	0.384900	0.920870
C2251	C225	0.700700	0.177700	0.100170
C2261	C226	0.743700	0.256600	0.096770
C2271	C227	0.735500	0.298700	0.130770
C2281	C228	0.682900	0.264100	0.166970
C2291	C229	0.644200	0.185600	0.170370
C2301	C230	0.653900	0.143300	0.137270
C2311	C231	0.798400	0.289500	0.057770
C2321	C232	0.617600	0.058900	0.143770
C2331	C233	0.020500	0.182900	0.057570
C2341	C234	0.975200	0.171600	0.016270
C2351	C235	0.969500	0.119100	0.983470
C2361	C236	0.007800	0.081700	0.989270
C2371	C237	0.054800	0.094000	0.027670
C2381	C238	0.058500	0.146100	0.062470
C2391	C239	0.941300	0.220800	0.010870
C2401	C240	0.114300	0.168700	0.103070
C2411	C241	0.310200	0.469200	0.539630
C2421	C242	0.351000	0.478200	0.497630
C2431	C243	0.348000	0.524200	0.462130
C2441	C244	0.308100	0.561400	0.468930
C2451	C245	0.265800	0.551200	0.509730
C2461	C246	0.269400	0.504100	0.546330
C2471	C247	0.394700	0.439800	0.491630
C2481	C248	0.220000	0.485700	0.589530
C2491	C249	0.965100	0.169700	0.615330
C2501	C250	0.921500	0.092800	0.611430
C2511	C251	0.921000	0.046400	0.647330
C2521	C252	0.963400	0.076300	0.686630
C2531	C253	0.008300	0.154000	0.691630
C2541	C254	0.008300	0.202100	0.656230
C2551	C255	0.868700	0.059400	0.569230
C2561	C256	0.052000	0.286400	0.661930
C2571	C257	0.150500	0.655000	0.769430
C2581	C258	0.183800	0.610900	0.765030
C2591	C259	0.235500	0.614200	0.797430
C2601	C260	0.250400	0.658600	0.837430
C2611	C261	0.217000	0.703800	0.842630
C2621	C262	0.163800	0.696600	0.809530
C2631	C263	0.160300	0.558100	0.724430
C2641	C264	0.119900	0.739000	0.819130
C2651	C265	0.626300	0.129800	0.544030
C2661	C266	0.670000	0.137200	0.504530
C2671	C267	0.670800	0.181200	0.467530
C2681	C268	0.632700	0.221500	0.471430
C2691	C269	0.585700	0.208700	0.510030
C2701	C270	0.583300	0.163700	0.547130
C2711	C271	0.710900	0.095000	0.499830
C2721	C272	0.530800	0.145900	0.587530
C2731	C273	0.477000	0.299300	0.766830
C2741	C274	0.512900	0.256300	0.763430
C2751	C275	0.563200	0.264500	0.797430
C2761	C276	0.581200	0.317100	0.833630
C2771	C277	0.541400	0.355800	0.837030
C2781	C278	0.489400	0.346100	0.803930
C2791	C279	0.491100	0.201600	0.724430
C2801	C280	0.441300	0.382400	0.810430
C2811	C281	0.162400	0.979500	0.724230
C2821	C282	0.196400	0.024800	0.682930
C2831	C283	0.149600	0.030500	0.650130
C2841	C284	0.073900	0.992200	0.655930
C2851	C285	0.039200	0.945200	0.694330
C2861	C286	0.087600	0.941500	0.729130
C2871	C287	0.279500	0.058700	0.677530
C2881	C288	0.054400	0.885700	0.769730
O11	O1	0.982600	0.422100	0.618500
O21	O2	0.995400	0.397400	0.693100
O31	O3	0.664400	0.169100	0.756100
O41	O4	0.775800	0.226000	0.790300
O51	O5	0.819400	0.814000	0.739300
O61	O6	0.781500	0.882800	0.700300
O71	O7	0.770200	0.084400	0.867800
O81	O8	0.730600	0.056600	0.794700
O91	O9	0.671600	0.178500	0.890000
O101	O10	0.559000	0.122200	0.858000
O111	O11	0.356300	0.129000	0.023800
O121	O12	0.341500	0.073400	0.957000
O131	O13	0.647000	0.747700	0.630500
O141	O14	0.651000	0.701600	0.701100
O151	O15	0.321600	0.471800	0.750100
O161	O16	0.419300	0.544100	0.793000
O171	O17	0.352300	0.491600	0.897700
O181	O18	0.251600	0.465800	0.853400
O191	O19	0.026900	0.453200	0.011100
O201	O20	0.023400	0.388100	0.948700
O211	O21	0.210000	0.308900	0.807700
O221	O22	0.275100	0.315300	0.871600
O231	O23	0.197400	0.092100	0.971100
O241	O24	0.156900	0.990200	0.932100
O251	O25	0.439500	0.017400	0.285170
O261	O26	0.402000	0.004600	0.359770
O271	O27	0.504700	0.335600	0.422770
O281	O28	0.450200	0.224200	0.456970
O291	O29	0.994600	0.180600	0.405970
O301	O30	0.101300	0.218500	0.366970
O311	O31	0.314200	0.229800	0.534470
O321	O32	0.326000	0.269400	0.461370
O331	O33	0.506900	0.328400	0.556670
O341	O34	0.563200	0.441000	0.524670
O351	O35	0.772700	0.643700	0.690470
O361	O36	0.731900	0.658500	0.623670
O371	O37	0.100700	0.353000	0.297170
O381	O38	0.050600	0.349000	0.367770
O391	O39	0.150200	0.678400	0.416770
O401	O40	0.124800	0.580700	0.459670
O411	O41	0.139300	0.647700	0.564370
O421	O42	0.214200	0.748400	0.520070
O431	O43	0.426300	0.973100	0.677770
O441	O44	0.364700	0.976600	0.615370
O451	O45	0.098900	0.790000	0.474370
O461	O46	0.040200	0.724900	0.538270
O471	O47	0.894700	0.802600	0.637770
O481	O48	0.833300	0.843100	0.598770
O491	O49	0.577900	0.560500	0.951830
O501	O50	0.602600	0.598000	0.026430
O511	O51	0.830900	0.495300	0.089430
O521	O52	0.774000	0.549800	0.123630
O531	O53	0.186000	0.005400	0.072630
O541	O54	0.117200	0.898700	0.033630
O551	O55	0.915600	0.685800	0.201130
O561	O56	0.943400	0.674000	0.128030
O571	O57	0.821500	0.493100	0.223330
O581	O58	0.877800	0.436800	0.191330
O591	O59	0.871000	0.227300	0.357130
O601	O60	0.926600	0.268100	0.290330
O611	O61	0.252300	0.899300	0.963830
O621	O62	0.298400	0.949400	0.034430
O631	O63	0.528200	0.849800	0.083430
O641	O64	0.455900	0.875200	0.126330
O651	O65	0.508400	0.860700	0.231030
O661	O66	0.534200	0.785800	0.186730
O671	O67	0.546800	0.573700	0.344430
O681	O68	0.611900	0.635300	0.282030
O691	O69	0.691100	0.901100	0.141030
O701	O70	0.684700	0.959800	0.204930
O711	O71	0.907900	0.105300	0.304430
O721	O72	0.009800	0.166700	0.265430
O731	O73	0.017400	0.577900	0.118500
O741	O74	0.004600	0.602600	0.193100
O751	O75	0.335600	0.830900	0.256100
O761	O76	0.224200	0.774000	0.290300
O771	O77	0.180600	0.186000	0.239300
O781	O78	0.218500	0.117200	0.200300
O791	O79	0.229800	0.915600	0.367800
O801	O80	0.269400	0.943400	0.294700
O811	O81	0.328400	0.821500	0.390000
O821	O82	0.441000	0.877800	0.358000
O831	O83	0.643700	0.871000	0.523800
O841	O84	0.658500	0.926600	0.457000
O851	O85	0.353000	0.252300	0.130500
O861	O86	0.349000	0.298400	0.201100
O871	O87	0.678400	0.528200	0.250100
O881	O88	0.580700	0.455900	0.293000
O891	O89	0.647700	0.508400	0.397700
O901	O90	0.748400	0.534200	0.353400
O911	O91	0.973100	0.546800	0.511100
O921	O92	0.976600	0.611900	0.448700
O931	O93	0.790000	0.691100	0.307700
O941	O94	0.724900	0.684700	0.371600
O951	O95	0.802600	0.907900	0.471100
O961	O96	0.843100	0.009800	0.432100
O971	O97	0.560500	0.982600	0.785170
O981	O98	0.598000	0.995400	0.859770
O991	O99	0.495300	0.664400	0.922770
O1001	O100	0.549800	0.775800	0.956970
O1011	O101	0.005400	0.819400	0.905970
O1021	O102	0.898700	0.781500	0.866970
O1031	O103	0.685800	0.770200	0.034470
O1041	O104	0.674000	0.730600	0.961370
O1051	O105	0.493100	0.671600	0.056670
O1061	O106	0.436800	0.559000	0.024670
O1071	O107	0.227300	0.356300	0.190470
O1081	O108	0.268100	0.341500	0.123670
O1091	O109	0.899300	0.647000	0.797170
O1101	O110	0.949400	0.651000	0.867770
O1111	O111	0.849800	0.321600	0.916770
O1121	O112	0.875200	0.419300	0.959670
O1131	O113	0.860700	0.352300	0.064370
O1141	O114	0.785800	0.251600	0.020070
O1151	O115	0.573700	0.026900	0.177770
O1161	O116	0.635300	0.023400	0.115370
O1171	O117	0.901100	0.210000	0.974370
O1181	O118	0.959800	0.275100	0.038270
O1191	O119	0.105300	0.197400	0.137770
O1201	O120	0.166700	0.156900	0.098770
O1211	O121	0.422100	0.439500	0.451830
O1221	O122	0.397400	0.402000	0.526430
O1231	O123	0.169100	0.504700	0.589430
O1241	O124	0.226000	0.450200	0.623630
O1251	O125	0.814000	0.994600	0.572630
O1261	O126	0.882800	0.101300	0.533630
O1271	O127	0.084400	0.314200	0.701130
O1281	O128	0.056600	0.326000	0.628030
O1291	O129	0.178500	0.506900	0.723330
O1301	O130	0.122200	0.563200	0.691330
O1311	O131	0.129000	0.772700	0.857130
O1321	O132	0.073400	0.731900	0.790330
O1331	O133	0.747700	0.100700	0.463830
O1341	O134	0.701600	0.050600	0.534430
O1351	O135	0.471800	0.150200	0.583430
O1361	O136	0.544100	0.124800	0.626330
O1371	O137	0.491600	0.139300	0.731030
O1381	O138	0.465800	0.214200	0.686730
O1391	O139	0.453200	0.426300	0.844430
O1401	O140	0.388100	0.364700	0.782030
O1411	O141	0.308900	0.098900	0.641030
O1421	O142	0.315300	0.040200	0.704930
O1431	O143	0.092100	0.894700	0.804430
O1441	O144	0.990200	0.833300	0.765430
