data_VEZWEE_clean_PM
_symmetry_space_group_name_H-M	'P1'
_cell_length_a	15.258000
_cell_length_b	21.333000
_cell_length_c	29.267000
_cell_angle_alpha	90.000000
_cell_angle_beta	90.000000
_cell_angle_gamma	90.000000
_symmetry_Int_Tables_number 1

loop_
_symmetry_equiv_pos_as_xyz
'x,y,z'

loop_
_atom_site_label
_atom_site_type_symbol
_atom_site_fract_x
_atom_site_fract_y
_atom_site_fract_z
Mn11	Mn1	0.361450	0.273050	0.233340
Mn21	Mn2	0.129090	0.276960	0.179660
Mn31	Mn3	0.172520	0.509360	0.157340
Mn41	Mn4	0.332890	0.503270	0.255260
C11	C1	0.194400	0.200900	0.265500
C21	C2	0.169600	0.148200	0.298100
C31	C3	0.234900	0.121400	0.324700
H11	H1	0.292200	0.136300	0.323800
C41	C4	0.211900	0.072100	0.352400
H21	H2	0.255100	0.053200	0.370000
C51	C5	0.066300	0.076300	0.328700
H31	H3	0.009300	0.061000	0.330200
C61	C6	0.086300	0.124200	0.300500
H41	H4	0.042600	0.141400	0.282300
C71	C7	0.109900	0.998200	0.387300
H51	H5	0.064800	0.971600	0.374100
H61	H6	0.161500	0.972700	0.392700
C81	C8	0.078900	0.024900	0.430200
H71	H7	0.021400	0.043300	0.425700
H81	H8	0.118600	0.057800	0.440000
C91	C9	0.073800	0.973200	0.467600
H91	H9	0.035900	0.939400	0.457700
H101	H10	0.131600	0.956300	0.473600
C101	C10	0.036500	0.004500	0.510800
H111	H11	0.073400	0.039400	0.519700
H121	H12	0.978100	0.020400	0.504700
C111	C11	0.099400	0.952300	0.579500
H131	H13	0.148500	0.977800	0.576900
C121	C12	0.093600	0.910000	0.614000
H141	H14	0.137000	0.909000	0.636300
C131	C13	0.025900	0.869600	0.616300
C141	C14	0.961100	0.873100	0.583500
H151	H15	0.914000	0.845400	0.583900
C151	C15	0.967700	0.918400	0.550200
H161	H16	0.924200	0.921400	0.528100
C161	C16	0.017700	0.820600	0.654400
C171	C17	0.293600	0.202500	0.144700
C181	C18	0.328200	0.158800	0.107200
C191	C19	0.405300	0.128400	0.113500
H171	H17	0.439800	0.136000	0.139100
C201	C20	0.431000	0.085900	0.080500
H181	H18	0.480800	0.061800	0.085900
C211	C21	0.317500	0.109800	0.035400
H191	H19	0.287000	0.104400	0.008200
C221	C22	0.287900	0.150900	0.067700
H201	H20	0.237700	0.174200	0.061600
C231	C23	0.421900	0.029800	0.009600
H211	H21	0.475000	0.010200	0.020900
H221	H22	0.377900	0.997400	0.005500
C241	C24	0.438900	0.060400	0.967000
H231	H23	0.485900	0.090500	0.971100
H241	H24	0.386900	0.083100	0.957500
C251	C25	0.465200	0.012200	0.929100
H251	H25	0.481800	0.035000	0.901700
H261	H26	0.516000	0.988800	0.939300
C261	C26	0.398600	0.970500	0.918300
H271	H27	0.344900	0.993500	0.912900
H281	H28	0.388900	0.942500	0.943900
C271	C27	0.473200	0.883100	0.878600
H291	H29	0.496500	0.872700	0.907000
C281	C28	0.494700	0.847200	0.841800
H301	H30	0.530400	0.812200	0.845500
C291	C29	0.463400	0.862900	0.799200
C301	C30	0.410300	0.915200	0.796000
H311	H31	0.388600	0.927000	0.767600
C311	C31	0.388600	0.950500	0.834300
H321	H32	0.353100	0.985800	0.831900
C321	C32	0.488200	0.824500	0.758000
C331	C33	0.156900	0.385800	0.099600
C341	C34	0.159700	0.359700	0.050900
C351	C35	0.144600	0.297400	0.043000
H331	H33	0.129900	0.270700	0.066900
C361	C36	0.151700	0.275000	0.998700
H341	H34	0.141600	0.232700	0.993000
C371	C37	0.185000	0.374100	0.970500
H351	H35	0.195700	0.400400	0.945800
C381	C38	0.181600	0.398200	0.014200
H361	H36	0.194000	0.440400	0.019100
C391	C39	0.183400	0.285400	0.918400
H371	H37	0.218500	0.247600	0.920600
H381	H38	0.214100	0.314800	0.898800
C401	C40	0.094700	0.269500	0.897300
H391	H39	0.061700	0.307700	0.892400
H401	H40	0.061700	0.243200	0.918200
C411	C41	0.106400	0.235100	0.851500
H411	H41	0.133700	0.263500	0.829900
H421	H42	0.145900	0.200000	0.856000
C421	C42	0.022200	0.211100	0.831300
H431	H43	0.035100	0.180500	0.807800
H441	H44	0.987900	0.190600	0.854900
C431	C43	0.992200	0.282100	0.769500
H451	H45	0.037200	0.261800	0.754000
C441	C44	0.948500	0.331300	0.748700
H461	H46	0.963600	0.344100	0.719400
C451	C45	0.881700	0.361400	0.772400
C461	C46	0.860000	0.340300	0.816800
H471	H47	0.815500	0.359300	0.833500
C471	C47	0.906800	0.291000	0.834400
H481	H48	0.893200	0.276300	0.863500
C481	C48	0.832900	0.415500	0.750200
C491	C49	0.336200	0.379400	0.314300
C501	C50	0.321800	0.353700	0.361600
C511	C51	0.309700	0.291500	0.369600
H491	H49	0.310400	0.263600	0.345200
C521	C52	0.296600	0.269300	0.412500
H501	H50	0.288900	0.226600	0.417400
C531	C53	0.306800	0.370500	0.440800
H511	H51	0.305800	0.397500	0.465700
C541	C54	0.320400	0.395000	0.398800
H521	H52	0.328600	0.437900	0.394700
C551	C55	0.278800	0.285200	0.496400
H531	H53	0.245900	0.315800	0.513900
H541	H54	0.244800	0.246800	0.495000
C561	C56	0.366100	0.272400	0.519800
H551	H55	0.400000	0.242800	0.501900
H561	H56	0.399400	0.311000	0.522300
C571	C57	0.348500	0.246100	0.566500
H571	H57	0.319500	0.277800	0.584800
H581	H58	0.308700	0.210800	0.563600
C581	C58	0.429300	0.224900	0.591000
H591	H59	0.464100	0.199300	0.570400
H601	H60	0.412300	0.198900	0.616700
C591	C59	0.467100	0.304500	0.648400
H611	H61	0.419300	0.290400	0.665200
C601	C60	0.517600	0.351500	0.665400
H621	H62	0.504300	0.370100	0.693300
C611	C61	0.590200	0.371200	0.639800
C621	C62	0.604500	0.344700	0.598000
H631	H63	0.650600	0.359100	0.580200
C631	C63	0.553200	0.297900	0.581900
H641	H64	0.564400	0.279600	0.553700
C641	C64	0.651400	0.420400	0.660200
O11	O1	0.140700	0.212300	0.234100
O21	O2	0.265400	0.226100	0.272610
O31	O3	0.059300	0.832300	0.690620
O41	O4	0.971000	0.775400	0.646300
O51	O5	0.219300	0.226500	0.136760
O61	O6	0.339500	0.209900	0.177800
O71	O7	0.542600	0.781200	0.764950
O81	O8	0.451400	0.838900	0.721450
O91	O9	0.184400	0.439900	0.103880
O101	O10	0.121500	0.352300	0.129560
O111	O11	0.853200	0.426700	0.709400
O121	O12	0.779600	0.444400	0.775400
O131	O13	0.369300	0.344400	0.285620
O141	O14	0.312900	0.435600	0.307800
O151	O15	0.710600	0.441900	0.635090
O161	O16	0.637000	0.434500	0.701400
N11	N1	0.245900	0.334600	0.205600
N21	N2	0.247000	0.389340	0.206200
N31	N3	0.248100	0.444600	0.207200
N41	N4	0.131500	0.050600	0.355100
N51	N5	0.033000	0.956800	0.549100
N61	N6	0.389800	0.078000	0.043400
N71	N7	0.421100	0.931700	0.875700
N81	N8	0.172700	0.312900	0.963900
N91	N9	0.970500	0.263700	0.811200
N101	N10	0.294700	0.309900	0.448100
N111	N11	0.484700	0.278200	0.608100
Mn51	Mn5	0.638550	0.726950	0.733340
Mn61	Mn6	0.870910	0.723040	0.679660
Mn71	Mn7	0.827480	0.490640	0.657340
Mn81	Mn8	0.667110	0.496730	0.755260
C651	C65	0.805600	0.799100	0.765500
C661	C66	0.830400	0.851800	0.798100
C671	C67	0.765100	0.878600	0.824700
H651	H65	0.707800	0.863700	0.823800
C681	C68	0.788100	0.927900	0.852400
H661	H66	0.744900	0.946800	0.870000
C691	C69	0.933700	0.923700	0.828700
H671	H67	0.990700	0.939000	0.830200
C701	C70	0.913700	0.875800	0.800500
H681	H68	0.957400	0.858600	0.782300
C711	C71	0.890100	0.001800	0.887300
H691	H69	0.935200	0.028400	0.874100
H701	H70	0.838500	0.027300	0.892700
C721	C72	0.921100	0.975100	0.930200
H711	H71	0.978600	0.956700	0.925700
H721	H72	0.881400	0.942200	0.940000
C731	C73	0.926200	0.026800	0.967600
H731	H73	0.964100	0.060600	0.957700
H741	H74	0.868400	0.043700	0.973600
C741	C74	0.963500	0.995500	0.010800
H751	H75	0.926600	0.960600	0.019700
H761	H76	0.021900	0.979600	0.004700
C751	C75	0.900600	0.047700	0.079500
H771	H77	0.851500	0.022200	0.076900
C761	C76	0.906400	0.090000	0.114000
H781	H78	0.863000	0.091000	0.136300
C771	C77	0.974100	0.130400	0.116300
C781	C78	0.038900	0.126900	0.083500
H791	H79	0.086000	0.154600	0.083900
C791	C79	0.032300	0.081600	0.050200
H801	H80	0.075800	0.078600	0.028100
C801	C80	0.982300	0.179400	0.154400
C811	C81	0.706400	0.797500	0.644700
C821	C82	0.671800	0.841200	0.607200
C831	C83	0.594700	0.871600	0.613500
H811	H81	0.560200	0.864000	0.639100
C841	C84	0.569000	0.914100	0.580500
H821	H82	0.519200	0.938200	0.585900
C851	C85	0.682500	0.890200	0.535400
H831	H83	0.713000	0.895600	0.508200
C861	C86	0.712100	0.849100	0.567700
H841	H84	0.762300	0.825800	0.561600
C871	C87	0.578100	0.970200	0.509600
H851	H85	0.525000	0.989800	0.520900
H861	H86	0.622100	0.002600	0.505500
C881	C88	0.561100	0.939600	0.467000
H871	H87	0.514100	0.909500	0.471100
H881	H88	0.613100	0.916900	0.457500
C891	C89	0.534800	0.987800	0.429100
H891	H89	0.518200	0.965000	0.401700
H901	H90	0.484000	0.011200	0.439300
C901	C90	0.601400	0.029500	0.418300
H911	H91	0.655100	0.006500	0.412900
H921	H92	0.611100	0.057500	0.443900
C911	C91	0.526800	0.116900	0.378600
H931	H93	0.503500	0.127300	0.407000
C921	C92	0.505300	0.152800	0.341800
H941	H94	0.469600	0.187800	0.345500
C931	C93	0.536600	0.137100	0.299200
C941	C94	0.589700	0.084800	0.296000
H951	H95	0.611400	0.073000	0.267600
C951	C95	0.611400	0.049500	0.334300
H961	H96	0.646900	0.014200	0.331900
C961	C96	0.511800	0.175500	0.258000
C971	C97	0.843100	0.614200	0.599600
C981	C98	0.840300	0.640300	0.550900
C991	C99	0.855400	0.702600	0.543000
H971	H97	0.870100	0.729300	0.566900
C1001	C100	0.848300	0.725000	0.498700
H981	H98	0.858400	0.767300	0.493000
C1011	C101	0.815000	0.625900	0.470500
H991	H99	0.804300	0.599600	0.445800
C1021	C102	0.818400	0.601800	0.514200
H1001	H100	0.806000	0.559600	0.519100
C1031	C103	0.816600	0.714600	0.418400
H1011	H101	0.781500	0.752400	0.420600
H1021	H102	0.785900	0.685200	0.398800
C1041	C104	0.905300	0.730500	0.397300
H1031	H103	0.938300	0.692300	0.392400
H1041	H104	0.938300	0.756800	0.418200
C1051	C105	0.893600	0.764900	0.351500
H1051	H105	0.866300	0.736500	0.329900
H1061	H106	0.854100	0.800000	0.356000
C1061	C106	0.977800	0.788900	0.331300
H1071	H107	0.964900	0.819500	0.307800
H1081	H108	0.012100	0.809400	0.354900
C1071	C107	0.007800	0.717900	0.269500
H1091	H109	0.962800	0.738200	0.254000
C1081	C108	0.051500	0.668700	0.248700
H1101	H110	0.036400	0.655900	0.219400
C1091	C109	0.118300	0.638600	0.272400
C1101	C110	0.140000	0.659700	0.316800
H1111	H111	0.184500	0.640700	0.333500
C1111	C111	0.093200	0.709000	0.334400
H1121	H112	0.106800	0.723700	0.363500
C1121	C112	0.167100	0.584500	0.250200
C1131	C113	0.663800	0.620600	0.814300
C1141	C114	0.678200	0.646300	0.861600
C1151	C115	0.690300	0.708500	0.869600
H1131	H113	0.689600	0.736400	0.845200
C1161	C116	0.703400	0.730700	0.912500
H1141	H114	0.711100	0.773400	0.917400
C1171	C117	0.693200	0.629500	0.940800
H1151	H115	0.694200	0.602500	0.965700
C1181	C118	0.679600	0.605000	0.898800
H1161	H116	0.671400	0.562100	0.894700
C1191	C119	0.721200	0.714800	0.996400
H1171	H117	0.754100	0.684200	0.013900
H1181	H118	0.755200	0.753200	0.995000
C1201	C120	0.633900	0.727600	0.019800
H1191	H119	0.600000	0.757200	0.001900
H1201	H120	0.600600	0.689000	0.022300
C1211	C121	0.651500	0.753900	0.066500
H1211	H121	0.680500	0.722200	0.084800
H1221	H122	0.691300	0.789200	0.063600
C1221	C122	0.570700	0.775100	0.091000
H1231	H123	0.535900	0.800700	0.070400
H1241	H124	0.587700	0.801100	0.116700
C1231	C123	0.532900	0.695500	0.148400
H1251	H125	0.580700	0.709600	0.165200
C1241	C124	0.482400	0.648500	0.165400
H1261	H126	0.495700	0.629900	0.193300
C1251	C125	0.409800	0.628800	0.139800
C1261	C126	0.395500	0.655300	0.098000
H1271	H127	0.349400	0.640900	0.080200
C1271	C127	0.446800	0.702100	0.081900
H1281	H128	0.435600	0.720400	0.053700
C1281	C128	0.348600	0.579600	0.160200
O171	O17	0.859300	0.787700	0.734100
O181	O18	0.734600	0.773900	0.772610
O191	O19	0.940700	0.167700	0.190620
O201	O20	0.029000	0.224600	0.146300
O211	O21	0.780700	0.773500	0.636760
O221	O22	0.660500	0.790100	0.677800
O231	O23	0.457400	0.218800	0.264950
O241	O24	0.548600	0.161100	0.221450
O251	O25	0.815600	0.560100	0.603880
O261	O26	0.878500	0.647700	0.629560
O271	O27	0.146800	0.573300	0.209400
O281	O28	0.220400	0.555600	0.275400
O291	O29	0.630700	0.655600	0.785620
O301	O30	0.687100	0.564400	0.807800
O311	O31	0.289400	0.558100	0.135090
O321	O32	0.363000	0.565500	0.201400
N121	N12	0.754100	0.665400	0.705600
N131	N13	0.753000	0.610660	0.706200
N141	N14	0.751900	0.555400	0.707200
N151	N15	0.868500	0.949400	0.855100
N161	N16	0.967000	0.043200	0.049100
N171	N17	0.610200	0.922000	0.543400
N181	N18	0.578900	0.068300	0.375700
N191	N19	0.827300	0.687100	0.463900
N201	N20	0.029500	0.736300	0.311200
N211	N21	0.705300	0.690100	0.948100
N221	N22	0.515300	0.721800	0.108100
Mn91	Mn9	0.861450	0.226950	0.233340
Mn101	Mn10	0.629090	0.223040	0.179660
Mn111	Mn11	0.672520	0.990640	0.157340
Mn121	Mn12	0.832890	0.996730	0.255260
C1291	C129	0.694400	0.299100	0.265500
C1301	C130	0.669600	0.351800	0.298100
C1311	C131	0.734900	0.378600	0.324700
H1291	H129	0.792200	0.363700	0.323800
C1321	C132	0.711900	0.427900	0.352400
H1301	H130	0.755100	0.446800	0.370000
C1331	C133	0.566300	0.423700	0.328700
H1311	H131	0.509300	0.439000	0.330200
C1341	C134	0.586300	0.375800	0.300500
H1321	H132	0.542600	0.358600	0.282300
C1351	C135	0.609900	0.501800	0.387300
H1331	H133	0.564800	0.528400	0.374100
H1341	H134	0.661500	0.527300	0.392700
C1361	C136	0.578900	0.475100	0.430200
H1351	H135	0.521400	0.456700	0.425700
H1361	H136	0.618600	0.442200	0.440000
C1371	C137	0.573800	0.526800	0.467600
H1371	H137	0.535900	0.560600	0.457700
H1381	H138	0.631600	0.543700	0.473600
C1381	C138	0.536500	0.495500	0.510800
H1391	H139	0.573400	0.460600	0.519700
H1401	H140	0.478100	0.479600	0.504700
C1391	C139	0.599400	0.547700	0.579500
H1411	H141	0.648500	0.522200	0.576900
C1401	C140	0.593600	0.590000	0.614000
H1421	H142	0.637000	0.591000	0.636300
C1411	C141	0.525900	0.630400	0.616300
C1421	C142	0.461100	0.626900	0.583500
H1431	H143	0.414000	0.654600	0.583900
C1431	C143	0.467700	0.581600	0.550200
H1441	H144	0.424200	0.578600	0.528100
C1441	C144	0.517700	0.679400	0.654400
C1451	C145	0.793600	0.297500	0.144700
C1461	C146	0.828200	0.341200	0.107200
C1471	C147	0.905300	0.371600	0.113500
H1451	H145	0.939800	0.364000	0.139100
C1481	C148	0.931000	0.414100	0.080500
H1461	H146	0.980800	0.438200	0.085900
C1491	C149	0.817500	0.390200	0.035400
H1471	H147	0.787000	0.395600	0.008200
C1501	C150	0.787900	0.349100	0.067700
H1481	H148	0.737700	0.325800	0.061600
C1511	C151	0.921900	0.470200	0.009600
H1491	H149	0.975000	0.489800	0.020900
H1501	H150	0.877900	0.502600	0.005500
C1521	C152	0.938900	0.439600	0.967000
H1511	H151	0.985900	0.409500	0.971100
H1521	H152	0.886900	0.416900	0.957500
C1531	C153	0.965200	0.487800	0.929100
H1531	H153	0.981800	0.465000	0.901700
H1541	H154	0.016000	0.511200	0.939300
C1541	C154	0.898600	0.529500	0.918300
H1551	H155	0.844900	0.506500	0.912900
H1561	H156	0.888900	0.557500	0.943900
C1551	C155	0.973200	0.616900	0.878600
H1571	H157	0.996500	0.627300	0.907000
C1561	C156	0.994700	0.652800	0.841800
H1581	H158	0.030400	0.687800	0.845500
C1571	C157	0.963400	0.637100	0.799200
C1581	C158	0.910300	0.584800	0.796000
H1591	H159	0.888600	0.573000	0.767600
C1591	C159	0.888600	0.549500	0.834300
H1601	H160	0.853100	0.514200	0.831900
C1601	C160	0.988200	0.675500	0.758000
C1611	C161	0.656900	0.114200	0.099600
C1621	C162	0.659700	0.140300	0.050900
C1631	C163	0.644600	0.202600	0.043000
H1611	H161	0.629900	0.229300	0.066900
C1641	C164	0.651700	0.225000	0.998700
H1621	H162	0.641600	0.267300	0.993000
C1651	C165	0.685000	0.125900	0.970500
H1631	H163	0.695700	0.099600	0.945800
C1661	C166	0.681600	0.101800	0.014200
H1641	H164	0.694000	0.059600	0.019100
C1671	C167	0.683400	0.214600	0.918400
H1651	H165	0.718500	0.252400	0.920600
H1661	H166	0.714100	0.185200	0.898800
C1681	C168	0.594700	0.230500	0.897300
H1671	H167	0.561700	0.192300	0.892400
H1681	H168	0.561700	0.256800	0.918200
C1691	C169	0.606400	0.264900	0.851500
H1691	H169	0.633700	0.236500	0.829900
H1701	H170	0.645900	0.300000	0.856000
C1701	C170	0.522200	0.288900	0.831300
H1711	H171	0.535100	0.319500	0.807800
H1721	H172	0.487900	0.309400	0.854900
C1711	C171	0.492200	0.217900	0.769500
H1731	H173	0.537200	0.238200	0.754000
C1721	C172	0.448500	0.168700	0.748700
H1741	H174	0.463600	0.155900	0.719400
C1731	C173	0.381700	0.138600	0.772400
C1741	C174	0.360000	0.159700	0.816800
H1751	H175	0.315500	0.140700	0.833500
C1751	C175	0.406800	0.209000	0.834400
H1761	H176	0.393200	0.223700	0.863500
C1761	C176	0.332900	0.084500	0.750200
C1771	C177	0.836200	0.120600	0.314300
C1781	C178	0.821800	0.146300	0.361600
C1791	C179	0.809700	0.208500	0.369600
H1771	H177	0.810400	0.236400	0.345200
C1801	C180	0.796600	0.230700	0.412500
H1781	H178	0.788900	0.273400	0.417400
C1811	C181	0.806800	0.129500	0.440800
H1791	H179	0.805800	0.102500	0.465700
C1821	C182	0.820400	0.105000	0.398800
H1801	H180	0.828600	0.062100	0.394700
C1831	C183	0.778800	0.214800	0.496400
H1811	H181	0.745900	0.184200	0.513900
H1821	H182	0.744800	0.253200	0.495000
C1841	C184	0.866100	0.227600	0.519800
H1831	H183	0.900000	0.257200	0.501900
H1841	H184	0.899400	0.189000	0.522300
C1851	C185	0.848500	0.253900	0.566500
H1851	H185	0.819500	0.222200	0.584800
H1861	H186	0.808700	0.289200	0.563600
C1861	C186	0.929300	0.275100	0.591000
H1871	H187	0.964100	0.300700	0.570400
H1881	H188	0.912300	0.301100	0.616700
C1871	C187	0.967100	0.195500	0.648400
H1891	H189	0.919300	0.209600	0.665200
C1881	C188	0.017600	0.148500	0.665400
H1901	H190	0.004300	0.129900	0.693300
C1891	C189	0.090200	0.128800	0.639800
C1901	C190	0.104500	0.155300	0.598000
H1911	H191	0.150600	0.140900	0.580200
C1911	C191	0.053200	0.202100	0.581900
H1921	H192	0.064400	0.220400	0.553700
C1921	C192	0.151400	0.079600	0.660200
O331	O33	0.640700	0.287700	0.234100
O341	O34	0.765400	0.273900	0.272610
O351	O35	0.559300	0.667700	0.690620
O361	O36	0.471000	0.724600	0.646300
O371	O37	0.719300	0.273500	0.136760
O381	O38	0.839500	0.290100	0.177800
O391	O39	0.042600	0.718800	0.764950
O401	O40	0.951400	0.661100	0.721450
O411	O41	0.684400	0.060100	0.103880
O421	O42	0.621500	0.147700	0.129560
O431	O43	0.353200	0.073300	0.709400
O441	O44	0.279600	0.055600	0.775400
O451	O45	0.869300	0.155600	0.285620
O461	O46	0.812900	0.064400	0.307800
O471	O47	0.210600	0.058100	0.635090
O481	O48	0.137000	0.065500	0.701400
N231	N23	0.745900	0.165400	0.205600
N241	N24	0.747000	0.110660	0.206200
N251	N25	0.748100	0.055400	0.207200
N261	N26	0.631500	0.449400	0.355100
N271	N27	0.533000	0.543200	0.549100
N281	N28	0.889800	0.422000	0.043400
N291	N29	0.921100	0.568300	0.875700
N301	N30	0.672700	0.187100	0.963900
N311	N31	0.470500	0.236300	0.811200
N321	N32	0.794700	0.190100	0.448100
N331	N33	0.984700	0.221800	0.608100
Mn131	Mn13	0.138550	0.773050	0.733340
Mn141	Mn14	0.370910	0.776960	0.679660
Mn151	Mn15	0.327480	0.009360	0.657340
Mn161	Mn16	0.167110	0.003270	0.755260
C1931	C193	0.305600	0.700900	0.765500
C1941	C194	0.330400	0.648200	0.798100
C1951	C195	0.265100	0.621400	0.824700
H1931	H193	0.207800	0.636300	0.823800
C1961	C196	0.288100	0.572100	0.852400
H1941	H194	0.244900	0.553200	0.870000
C1971	C197	0.433700	0.576300	0.828700
H1951	H195	0.490700	0.561000	0.830200
C1981	C198	0.413700	0.624200	0.800500
H1961	H196	0.457400	0.641400	0.782300
C1991	C199	0.390100	0.498200	0.887300
H1971	H197	0.435200	0.471600	0.874100
H1981	H198	0.338500	0.472700	0.892700
C2001	C200	0.421100	0.524900	0.930200
H1991	H199	0.478600	0.543300	0.925700
H2001	H200	0.381400	0.557800	0.940000
C2011	C201	0.426200	0.473200	0.967600
H2011	H201	0.464100	0.439400	0.957700
H2021	H202	0.368400	0.456300	0.973600
C2021	C202	0.463500	0.504500	0.010800
H2031	H203	0.426600	0.539400	0.019700
H2041	H204	0.521900	0.520400	0.004700
C2031	C203	0.400600	0.452300	0.079500
H2051	H205	0.351500	0.477800	0.076900
C2041	C204	0.406400	0.410000	0.114000
H2061	H206	0.363000	0.409000	0.136300
C2051	C205	0.474100	0.369600	0.116300
C2061	C206	0.538900	0.373100	0.083500
H2071	H207	0.586000	0.345400	0.083900
C2071	C207	0.532300	0.418400	0.050200
H2081	H208	0.575800	0.421400	0.028100
C2081	C208	0.482300	0.320600	0.154400
C2091	C209	0.206400	0.702500	0.644700
C2101	C210	0.171800	0.658800	0.607200
C2111	C211	0.094700	0.628400	0.613500
H2091	H209	0.060200	0.636000	0.639100
C2121	C212	0.069000	0.585900	0.580500
H2101	H210	0.019200	0.561800	0.585900
C2131	C213	0.182500	0.609800	0.535400
H2111	H211	0.213000	0.604400	0.508200
C2141	C214	0.212100	0.650900	0.567700
H2121	H212	0.262300	0.674200	0.561600
C2151	C215	0.078100	0.529800	0.509600
H2131	H213	0.025000	0.510200	0.520900
H2141	H214	0.122100	0.497400	0.505500
C2161	C216	0.061100	0.560400	0.467000
H2151	H215	0.014100	0.590500	0.471100
H2161	H216	0.113100	0.583100	0.457500
C2171	C217	0.034800	0.512200	0.429100
H2171	H217	0.018200	0.535000	0.401700
H2181	H218	0.984000	0.488800	0.439300
C2181	C218	0.101400	0.470500	0.418300
H2191	H219	0.155100	0.493500	0.412900
H2201	H220	0.111100	0.442500	0.443900
C2191	C219	0.026800	0.383100	0.378600
H2211	H221	0.003500	0.372700	0.407000
C2201	C220	0.005300	0.347200	0.341800
H2221	H222	0.969600	0.312200	0.345500
C2211	C221	0.036600	0.362900	0.299200
C2221	C222	0.089700	0.415200	0.296000
H2231	H223	0.111400	0.427000	0.267600
C2231	C223	0.111400	0.450500	0.334300
H2241	H224	0.146900	0.485800	0.331900
C2241	C224	0.011800	0.324500	0.258000
C2251	C225	0.343100	0.885800	0.599600
C2261	C226	0.340300	0.859700	0.550900
C2271	C227	0.355400	0.797400	0.543000
H2251	H225	0.370100	0.770700	0.566900
C2281	C228	0.348300	0.775000	0.498700
H2261	H226	0.358400	0.732700	0.493000
C2291	C229	0.315000	0.874100	0.470500
H2271	H227	0.304300	0.900400	0.445800
C2301	C230	0.318400	0.898200	0.514200
H2281	H228	0.306000	0.940400	0.519100
C2311	C231	0.316600	0.785400	0.418400
H2291	H229	0.281500	0.747600	0.420600
H2301	H230	0.285900	0.814800	0.398800
C2321	C232	0.405300	0.769500	0.397300
H2311	H231	0.438300	0.807700	0.392400
H2321	H232	0.438300	0.743200	0.418200
C2331	C233	0.393600	0.735100	0.351500
H2331	H233	0.366300	0.763500	0.329900
H2341	H234	0.354100	0.700000	0.356000
C2341	C234	0.477800	0.711100	0.331300
H2351	H235	0.464900	0.680500	0.307800
H2361	H236	0.512100	0.690600	0.354900
C2351	C235	0.507800	0.782100	0.269500
H2371	H237	0.462800	0.761800	0.254000
C2361	C236	0.551500	0.831300	0.248700
H2381	H238	0.536400	0.844100	0.219400
C2371	C237	0.618300	0.861400	0.272400
C2381	C238	0.640000	0.840300	0.316800
H2391	H239	0.684500	0.859300	0.333500
C2391	C239	0.593200	0.791000	0.334400
H2401	H240	0.606800	0.776300	0.363500
C2401	C240	0.667100	0.915500	0.250200
C2411	C241	0.163800	0.879400	0.814300
C2421	C242	0.178200	0.853700	0.861600
C2431	C243	0.190300	0.791500	0.869600
H2411	H241	0.189600	0.763600	0.845200
C2441	C244	0.203400	0.769300	0.912500
H2421	H242	0.211100	0.726600	0.917400
C2451	C245	0.193200	0.870500	0.940800
H2431	H243	0.194200	0.897500	0.965700
C2461	C246	0.179600	0.895000	0.898800
H2441	H244	0.171400	0.937900	0.894700
C2471	C247	0.221200	0.785200	0.996400
H2451	H245	0.254100	0.815800	0.013900
H2461	H246	0.255200	0.746800	0.995000
C2481	C248	0.133900	0.772400	0.019800
H2471	H247	0.100000	0.742800	0.001900
H2481	H248	0.100600	0.811000	0.022300
C2491	C249	0.151500	0.746100	0.066500
H2491	H249	0.180500	0.777800	0.084800
H2501	H250	0.191300	0.710800	0.063600
C2501	C250	0.070700	0.724900	0.091000
H2511	H251	0.035900	0.699300	0.070400
H2521	H252	0.087700	0.698900	0.116700
C2511	C251	0.032900	0.804500	0.148400
H2531	H253	0.080700	0.790400	0.165200
C2521	C252	0.982400	0.851500	0.165400
H2541	H254	0.995700	0.870100	0.193300
C2531	C253	0.909800	0.871200	0.139800
C2541	C254	0.895500	0.844700	0.098000
H2551	H255	0.849400	0.859100	0.080200
C2551	C255	0.946800	0.797900	0.081900
H2561	H256	0.935600	0.779600	0.053700
C2561	C256	0.848600	0.920400	0.160200
O491	O49	0.359300	0.712300	0.734100
O501	O50	0.234600	0.726100	0.772610
O511	O51	0.440700	0.332300	0.190620
O521	O52	0.529000	0.275400	0.146300
O531	O53	0.280700	0.726500	0.636760
O541	O54	0.160500	0.709900	0.677800
O551	O55	0.957400	0.281200	0.264950
O561	O56	0.048600	0.338900	0.221450
O571	O57	0.315600	0.939900	0.603880
O581	O58	0.378500	0.852300	0.629560
O591	O59	0.646800	0.926700	0.209400
O601	O60	0.720400	0.944400	0.275400
O611	O61	0.130700	0.844400	0.785620
O621	O62	0.187100	0.935600	0.807800
O631	O63	0.789400	0.941900	0.135090
O641	O64	0.863000	0.934500	0.201400
N341	N34	0.254100	0.834600	0.705600
N351	N35	0.253000	0.889340	0.706200
N361	N36	0.251900	0.944600	0.707200
N371	N37	0.368500	0.550600	0.855100
N381	N38	0.467000	0.456800	0.049100
N391	N39	0.110200	0.578000	0.543400
N401	N40	0.078900	0.431700	0.375700
N411	N41	0.327300	0.812900	0.463900
N421	N42	0.529500	0.763700	0.311200
N431	N43	0.205300	0.809900	0.948100
N441	N44	0.015300	0.778200	0.108100
