data_VIDXOX_clean_PM
_symmetry_space_group_name_H-M	'P1'
_cell_length_a	10.413500
_cell_length_b	10.554100
_cell_length_c	14.037200
_cell_angle_alpha	99.595000
_cell_angle_beta	99.620000
_cell_angle_gamma	108.843000
_symmetry_Int_Tables_number 1

loop_
_symmetry_equiv_pos_as_xyz
'x,y,z'

loop_
_atom_site_label
_atom_site_type_symbol
_atom_site_fract_x
_atom_site_fract_y
_atom_site_fract_z
Er11	Er1	0.964160	0.464170	0.821450
Er21	Er2	0.541780	0.065380	0.181990
Er31	Er3	0.035840	0.535830	0.178550
Er41	Er4	0.458220	0.934620	0.818010
H11	H1	0.792100	0.818300	0.921700
H21	H2	0.301500	0.334500	0.891500
H31	H3	0.085700	0.737300	0.551300
H41	H4	0.207900	0.181700	0.078300
H51	H5	0.698500	0.665500	0.108500
H61	H6	0.914300	0.262700	0.448700
C11	C1	0.001700	0.879200	0.944300
C21	C2	0.127700	0.988000	0.990500
C31	C3	0.875200	0.891100	0.953200
C41	C4	0.000900	0.741400	0.894400
C51	C5	0.265000	0.982300	0.973000
C61	C6	0.488100	0.601800	0.071900
C71	C7	0.368400	0.501600	0.006800
C81	C8	0.381200	0.400700	0.935100
C91	C9	0.484900	0.720500	0.147000
C101	C10	0.225200	0.498600	0.011800
C111	C11	0.030200	0.419900	0.565100
C121	C12	0.082900	0.564800	0.596100
C131	C13	0.051100	0.641700	0.530300
C141	C14	0.056200	0.326000	0.630300
C151	C15	0.176900	0.642300	0.696700
C161	C16	0.998300	0.120800	0.055700
C171	C17	0.872300	0.012000	0.009500
C181	C18	0.124800	0.108900	0.046800
C191	C19	0.999100	0.258600	0.105600
C201	C20	0.735000	0.017700	0.027000
C211	C21	0.511900	0.398200	0.928100
C221	C22	0.631600	0.498400	0.993200
C231	C23	0.618800	0.599300	0.064900
C241	C24	0.515100	0.279500	0.853000
C251	C25	0.774800	0.501400	0.988200
C261	C26	0.969800	0.580100	0.434900
C271	C27	0.917100	0.435200	0.403900
C281	C28	0.948900	0.358300	0.469700
C291	C29	0.943800	0.674000	0.369700
C301	C30	0.823100	0.357700	0.303300
O11	O1	0.362400	0.006900	0.046900
O21	O2	0.273000	0.958000	0.883600
O31	O3	0.076200	0.689900	0.942600
O41	O4	0.919800	0.675100	0.811000
O51	O5	0.131200	0.442500	0.932300
O61	O6	0.206800	0.549400	0.093200
O71	O7	0.474400	0.821700	0.114400
O81	O8	0.502700	0.715100	0.236300
O91	O9	0.154300	0.593000	0.770600
O101	O10	0.273800	0.752300	0.700900
O111	O11	0.000200	0.315800	0.701100
O121	O12	0.124700	0.254900	0.605800
O131	O13	0.637600	0.993100	0.953100
O141	O14	0.727000	0.042000	0.116400
O151	O15	0.923800	0.310100	0.057400
O161	O16	0.080200	0.324900	0.189000
O171	O17	0.868800	0.557500	0.067700
O181	O18	0.793200	0.450600	0.906800
O191	O19	0.525600	0.178300	0.885600
O201	O20	0.497300	0.284900	0.763700
O211	O21	0.845700	0.407000	0.229400
O221	O22	0.726200	0.247700	0.299100
O231	O23	0.999800	0.684200	0.298900
O241	O24	0.875300	0.745100	0.394200
