data_VIFBUJ_clean_PM
_symmetry_space_group_name_H-M	'P1'
_cell_length_a	11.287400
_cell_length_b	11.891700
_cell_length_c	17.535200
_cell_angle_alpha	90.000000
_cell_angle_beta	90.000000
_cell_angle_gamma	106.723000
_symmetry_Int_Tables_number 1

loop_
_symmetry_equiv_pos_as_xyz
'x,y,z'

loop_
_atom_site_label
_atom_site_type_symbol
_atom_site_fract_x
_atom_site_fract_y
_atom_site_fract_z
Tm11	Tm1	0.761450	0.643430	0.001750
Tm21	Tm2	0.205690	0.832160	0.987200
Tm31	Tm3	0.238550	0.356570	0.501750
Tm41	Tm4	0.794310	0.167840	0.487200
Tm51	Tm5	0.238550	0.356570	0.998250
Tm61	Tm6	0.794310	0.167840	0.012800
Tm71	Tm7	0.761450	0.643430	0.498250
Tm81	Tm8	0.205690	0.832160	0.512800
H11	H1	0.054300	0.322000	0.750000
H21	H2	0.614300	0.813600	0.750000
H31	H3	0.997400	0.802500	0.750000
H41	H4	0.766100	0.530600	0.750000
H51	H5	0.358000	0.430800	0.750000
H61	H6	0.945700	0.678000	0.250000
H71	H7	0.385700	0.186400	0.250000
H81	H8	0.002600	0.197500	0.250000
H91	H9	0.233900	0.469400	0.250000
H101	H10	0.642000	0.569200	0.250000
C11	C1	0.954500	0.394600	0.819100
C21	C2	0.867000	0.458100	0.819600
C31	C3	0.006900	0.356300	0.891200
C41	C4	0.924900	0.900600	0.818700
C51	C5	0.858400	0.983300	0.819000
C61	C6	0.824600	0.505200	0.890000
C71	C7	0.446200	0.564800	0.819800
C81	C8	0.571000	0.747500	0.892500
C91	C9	0.966800	0.849400	0.888600
C101	C10	0.524200	0.680200	0.819500
C111	C11	0.830400	0.039000	0.889800
C121	C12	0.390700	0.498900	0.889600
C131	C13	0.045500	0.605400	0.319100
C141	C14	0.133000	0.541900	0.319600
C151	C15	0.993100	0.643700	0.391200
C161	C16	0.075100	0.099400	0.318700
C171	C17	0.141600	0.016700	0.319000
C181	C18	0.175400	0.494800	0.390000
C191	C19	0.553800	0.435200	0.319800
C201	C20	0.429000	0.252500	0.392500
C211	C21	0.033200	0.150600	0.388600
C221	C22	0.475800	0.319800	0.319500
C231	C23	0.169600	0.961000	0.389800
C241	C24	0.609300	0.501100	0.389600
C251	C25	0.045500	0.605400	0.180900
C261	C26	0.133000	0.541900	0.180400
C271	C27	0.993100	0.643700	0.108800
C281	C28	0.075100	0.099400	0.181300
C291	C29	0.141600	0.016700	0.181000
C301	C30	0.175400	0.494800	0.110000
C311	C31	0.553800	0.435200	0.180200
C321	C32	0.429000	0.252500	0.107500
C331	C33	0.033200	0.150600	0.111400
C341	C34	0.475800	0.319800	0.180500
C351	C35	0.169600	0.961000	0.110200
C361	C36	0.609300	0.501100	0.110400
C371	C37	0.954500	0.394600	0.680900
C381	C38	0.867000	0.458100	0.680400
C391	C39	0.006900	0.356300	0.608800
C401	C40	0.924900	0.900600	0.681300
C411	C41	0.858400	0.983300	0.681000
C421	C42	0.824600	0.505200	0.610000
C431	C43	0.446200	0.564800	0.680200
C441	C44	0.571000	0.747500	0.607500
C451	C45	0.966800	0.849400	0.611400
C461	C46	0.524200	0.680200	0.680500
C471	C47	0.830400	0.039000	0.610200
C481	C48	0.390700	0.498900	0.610400
C491	C49	0.996500	0.364100	0.750000
C501	C50	0.562600	0.737000	0.750000
C511	C51	0.955400	0.859300	0.750000
C521	C52	0.824200	0.488800	0.750000
C531	C53	0.825000	0.022900	0.750000
C541	C54	0.408700	0.507900	0.750000
C551	C55	0.003500	0.635900	0.250000
C561	C56	0.437400	0.263000	0.250000
C571	C57	0.044600	0.140700	0.250000
C581	C58	0.175800	0.511200	0.250000
C591	C59	0.175000	0.977100	0.250000
C601	C60	0.591300	0.492100	0.250000
O11	O1	0.379800	0.391100	0.894600
O21	O2	0.889500	0.035900	0.950000
O31	O3	0.719900	0.524600	0.889900
O41	O4	0.893000	0.531600	0.948100
O51	O5	0.346100	0.547900	0.942600
O61	O6	0.747700	0.093100	0.887800
O71	O7	0.569500	0.851100	0.896400
O81	O8	0.889600	0.774800	0.926500
O91	O9	0.081400	0.878100	0.900000
O101	O10	0.121300	0.385800	0.897000
O111	O11	0.607500	0.693400	0.945800
O121	O12	0.933100	0.293200	0.938200
O131	O13	0.620200	0.608900	0.394600
O141	O14	0.110500	0.964100	0.450000
O151	O15	0.280100	0.475400	0.389900
O161	O16	0.107000	0.468400	0.448100
O171	O17	0.653900	0.452100	0.442600
O181	O18	0.252300	0.906900	0.387800
O191	O19	0.430500	0.148900	0.396400
O201	O20	0.110400	0.225200	0.426500
O211	O21	0.918600	0.121900	0.400000
O221	O22	0.878700	0.614200	0.397000
O231	O23	0.392500	0.306600	0.445800
O241	O24	0.066900	0.706800	0.438200
O251	O25	0.620200	0.608900	0.105400
O261	O26	0.110500	0.964100	0.050000
O271	O27	0.280100	0.475400	0.110100
O281	O28	0.107000	0.468400	0.051900
O291	O29	0.653900	0.452100	0.057400
O301	O30	0.252300	0.906900	0.112200
O311	O31	0.430500	0.148900	0.103600
O321	O32	0.110400	0.225200	0.073500
O331	O33	0.918600	0.121900	0.100000
O341	O34	0.878700	0.614200	0.103000
O351	O35	0.392500	0.306600	0.054200
O361	O36	0.066900	0.706800	0.061800
O371	O37	0.379800	0.391100	0.605400
O381	O38	0.889500	0.035900	0.550000
O391	O39	0.719900	0.524600	0.610100
O401	O40	0.893000	0.531600	0.551900
O411	O41	0.346100	0.547900	0.557400
O421	O42	0.747700	0.093100	0.612200
O431	O43	0.569500	0.851100	0.603600
O441	O44	0.889600	0.774800	0.573500
O451	O45	0.081400	0.878100	0.600000
O461	O46	0.121300	0.385800	0.603000
O471	O47	0.607500	0.693400	0.554200
O481	O48	0.933100	0.293200	0.561800
