data_VILXOE_clean_PM
_symmetry_space_group_name_H-M	'P1'
_cell_length_a	7.780800
_cell_length_b	10.852900
_cell_length_c	15.275200
_cell_angle_alpha	90.000000
_cell_angle_beta	90.000000
_cell_angle_gamma	90.000000
_symmetry_Int_Tables_number 1

loop_
_symmetry_equiv_pos_as_xyz
'x,y,z'

loop_
_atom_site_label
_atom_site_type_symbol
_atom_site_fract_x
_atom_site_fract_y
_atom_site_fract_z
Mn11	Mn1	0.984080	0.298660	0.705840
Mn21	Mn2	0.015920	0.798660	0.294160
Mn31	Mn3	0.484080	0.298660	0.794160
Mn41	Mn4	0.515920	0.798660	0.205840
H11	H1	0.890000	0.901300	0.573300
H21	H2	0.859800	0.977300	0.653100
H31	H3	0.201100	0.023900	0.506100
H41	H4	0.581100	0.071200	0.681400
H51	H5	0.664200	0.868300	0.466000
H61	H6	0.110000	0.401300	0.426700
H71	H7	0.140200	0.477300	0.346900
H81	H8	0.798900	0.523900	0.493900
H91	H9	0.418900	0.571200	0.318600
H101	H10	0.335800	0.368300	0.534000
H111	H11	0.390000	0.901300	0.926700
H121	H12	0.359800	0.977300	0.846900
H131	H13	0.701100	0.023900	0.993900
H141	H14	0.081100	0.071200	0.818600
H151	H15	0.164200	0.868300	0.034000
H161	H16	0.610000	0.401300	0.073300
H171	H17	0.640200	0.477300	0.153100
H181	H18	0.298900	0.523900	0.006100
H191	H19	0.918900	0.571200	0.181400
H201	H20	0.835800	0.368300	0.966000
C11	C1	0.422700	0.936200	0.474180
C21	C2	0.313400	0.009340	0.524260
C31	C3	0.374400	0.060510	0.602100
C41	C4	0.542200	0.038000	0.628880
C51	C5	0.652800	0.966660	0.578270
C61	C6	0.591700	0.915990	0.500590
C71	C7	0.361600	0.881820	0.388920
C81	C8	0.259800	0.139990	0.656980
C91	C9	0.577300	0.436200	0.525820
C101	C10	0.686600	0.509340	0.475740
C111	C11	0.625600	0.560510	0.397900
C121	C12	0.457800	0.538000	0.371120
C131	C13	0.347200	0.466660	0.421730
C141	C14	0.408300	0.415990	0.499410
C151	C15	0.638400	0.381820	0.611080
C161	C16	0.740200	0.639990	0.343020
C171	C17	0.922700	0.936200	0.025820
C181	C18	0.813400	0.009340	0.975740
C191	C19	0.874400	0.060510	0.897900
C201	C20	0.042200	0.038000	0.871120
C211	C21	0.152800	0.966660	0.921730
C221	C22	0.091700	0.915990	0.999410
C231	C23	0.861600	0.881820	0.111080
C241	C24	0.759800	0.139990	0.843020
C251	C25	0.077300	0.436200	0.974180
C261	C26	0.186600	0.509340	0.024260
C271	C27	0.125600	0.560510	0.102100
C281	C28	0.957800	0.538000	0.128880
C291	C29	0.847200	0.466660	0.078270
C301	C30	0.908300	0.415990	0.000590
C311	C31	0.138400	0.381820	0.888920
C321	C32	0.240200	0.639990	0.156980
N11	N1	0.822800	0.945700	0.605020
N21	N2	0.177200	0.445700	0.394980
N31	N3	0.322800	0.945700	0.894980
N41	N4	0.677200	0.445700	0.105020
O11	O1	0.115800	0.170800	0.627250
O21	O2	0.309600	0.171780	0.733020
O31	O3	0.474400	0.861790	0.332180
O41	O4	0.204540	0.862480	0.380300
O51	O5	0.884200	0.670800	0.372750
O61	O6	0.690400	0.671780	0.266980
O71	O7	0.525600	0.361790	0.667820
O81	O8	0.795460	0.362480	0.619700
O91	O9	0.615800	0.170800	0.872750
O101	O10	0.809600	0.171780	0.766980
O111	O11	0.974400	0.861790	0.167820
O121	O12	0.704540	0.862480	0.119700
O131	O13	0.384200	0.670800	0.127250
O141	O14	0.190400	0.671780	0.233020
O151	O15	0.025600	0.361790	0.832180
O161	O16	0.295460	0.362480	0.880300
