data_VIMRAM_clean_PM
_symmetry_space_group_name_H-M	'P1'
_cell_length_a	24.126700
_cell_length_b	24.126700
_cell_length_c	11.307700
_cell_angle_alpha	90.000000
_cell_angle_beta	90.000000
_cell_angle_gamma	90.000000
_symmetry_Int_Tables_number 1

loop_
_symmetry_equiv_pos_as_xyz
'x,y,z'

loop_
_atom_site_label
_atom_site_type_symbol
_atom_site_fract_x
_atom_site_fract_y
_atom_site_fract_z
Cu11	Cu1	0.462460	0.508500	0.101500
Cu21	Cu2	0.598650	0.544130	0.147320
O11	O1	0.552930	0.561150	0.284000
O21	O2	0.469500	0.520790	0.267800
O31	O3	0.481470	0.883950	0.876900
O41	O4	0.535380	0.847980	0.017400
O51	O5	0.333210	0.526300	0.578900
O61	O6	0.366390	0.541730	0.776600
O71	O7	0.330500	0.617200	0.666000
O81	O8	0.469710	0.607070	0.041400
O91	O9	0.561610	0.648420	0.064200
O101	O10	0.541990	0.591800	0.895000
O111	O11	0.542340	0.497470	0.072900
H11	H1	0.546100	0.467200	0.104800
O121	O12	0.447320	0.629870	0.773800
S11	S1	0.358460	0.564560	0.660160
S21	S2	0.519780	0.629740	0.984200
C11	C1	0.491130	0.569370	0.443900
C21	C2	0.440130	0.557820	0.492300
H21	H2	0.415300	0.535600	0.450900
C31	C3	0.425300	0.578690	0.601600
C41	C4	0.462700	0.610950	0.661500
C51	C5	0.513400	0.621200	0.616500
H31	H3	0.538600	0.642200	0.659900
C61	C6	0.528500	0.601000	0.506400
H41	H4	0.563400	0.608700	0.475200
C71	C7	0.465800	0.682490	0.805900
C81	C8	0.496180	0.688480	0.906700
C91	C9	0.509220	0.741280	0.946500
H51	H5	0.529400	0.745600	0.016000
C101	C10	0.492300	0.787920	0.883400
C111	C11	0.462700	0.780170	0.780200
H61	H6	0.451400	0.810800	0.736400
C121	C12	0.449800	0.727900	0.741500
H71	H7	0.430100	0.723300	0.671500
C131	C13	0.506390	0.548160	0.321900
C141	C14	0.504080	0.844900	0.930300
Cu31	Cu3	0.037540	0.991500	0.101500
Cu41	Cu4	0.901350	0.955870	0.147320
O131	O13	0.947070	0.938850	0.284000
O141	O14	0.030500	0.979210	0.267800
O151	O15	0.018530	0.616050	0.876900
O161	O16	0.964620	0.652020	0.017400
O171	O17	0.166790	0.973700	0.578900
O181	O18	0.133610	0.958270	0.776600
O191	O19	0.169500	0.882800	0.666000
O201	O20	0.030290	0.892930	0.041400
O211	O21	0.938390	0.851580	0.064200
O221	O22	0.958010	0.908200	0.895000
O231	O23	0.957660	0.002530	0.072900
H81	H8	0.953900	0.032800	0.104800
O241	O24	0.052680	0.870130	0.773800
S31	S3	0.141540	0.935440	0.660160
S41	S4	0.980220	0.870260	0.984200
C151	C15	0.008870	0.930630	0.443900
C161	C16	0.059870	0.942180	0.492300
H91	H9	0.084700	0.964400	0.450900
C171	C17	0.074700	0.921310	0.601600
C181	C18	0.037300	0.889050	0.661500
C191	C19	0.986600	0.878800	0.616500
H101	H10	0.961400	0.857800	0.659900
C201	C20	0.971500	0.899000	0.506400
H111	H11	0.936600	0.891300	0.475200
C211	C21	0.034200	0.817510	0.805900
C221	C22	0.003820	0.811520	0.906700
C231	C23	0.990780	0.758720	0.946500
H121	H12	0.970600	0.754400	0.016000
C241	C24	0.007700	0.712080	0.883400
C251	C25	0.037300	0.719830	0.780200
H131	H13	0.048600	0.689200	0.736400
C261	C26	0.050200	0.772100	0.741500
H141	H14	0.069900	0.776700	0.671500
C271	C27	0.993610	0.951840	0.321900
C281	C28	0.995920	0.655100	0.930300
Cu51	Cu5	0.991500	0.462460	0.101500
Cu61	Cu6	0.955870	0.598650	0.147320
O251	O25	0.938850	0.552930	0.284000
O261	O26	0.979210	0.469500	0.267800
O271	O27	0.616050	0.481470	0.876900
O281	O28	0.652020	0.535380	0.017400
O291	O29	0.973700	0.333210	0.578900
O301	O30	0.958270	0.366390	0.776600
O311	O31	0.882800	0.330500	0.666000
O321	O32	0.892930	0.469710	0.041400
O331	O33	0.851580	0.561610	0.064200
O341	O34	0.908200	0.541990	0.895000
O351	O35	0.002530	0.542340	0.072900
H151	H15	0.032800	0.546100	0.104800
O361	O36	0.870130	0.447320	0.773800
S51	S5	0.935440	0.358460	0.660160
S61	S6	0.870260	0.519780	0.984200
C291	C29	0.930630	0.491130	0.443900
C301	C30	0.942180	0.440130	0.492300
H161	H16	0.964400	0.415300	0.450900
C311	C31	0.921310	0.425300	0.601600
C321	C32	0.889050	0.462700	0.661500
C331	C33	0.878800	0.513400	0.616500
H171	H17	0.857800	0.538600	0.659900
C341	C34	0.899000	0.528500	0.506400
H181	H18	0.891300	0.563400	0.475200
C351	C35	0.817510	0.465800	0.805900
C361	C36	0.811520	0.496180	0.906700
C371	C37	0.758720	0.509220	0.946500
H191	H19	0.754400	0.529400	0.016000
C381	C38	0.712080	0.492300	0.883400
C391	C39	0.719830	0.462700	0.780200
H201	H20	0.689200	0.451400	0.736400
C401	C40	0.772100	0.449800	0.741500
H211	H21	0.776700	0.430100	0.671500
C411	C41	0.951840	0.506390	0.321900
C421	C42	0.655100	0.504080	0.930300
Cu71	Cu7	0.508500	0.037540	0.101500
Cu81	Cu8	0.544130	0.901350	0.147320
O371	O37	0.561150	0.947070	0.284000
O381	O38	0.520790	0.030500	0.267800
O391	O39	0.883950	0.018530	0.876900
O401	O40	0.847980	0.964620	0.017400
O411	O41	0.526300	0.166790	0.578900
O421	O42	0.541730	0.133610	0.776600
O431	O43	0.617200	0.169500	0.666000
O441	O44	0.607070	0.030290	0.041400
O451	O45	0.648420	0.938390	0.064200
O461	O46	0.591800	0.958010	0.895000
O471	O47	0.497470	0.957660	0.072900
H221	H22	0.467200	0.953900	0.104800
O481	O48	0.629870	0.052680	0.773800
S71	S7	0.564560	0.141540	0.660160
S81	S8	0.629740	0.980220	0.984200
C431	C43	0.569370	0.008870	0.443900
C441	C44	0.557820	0.059870	0.492300
H231	H23	0.535600	0.084700	0.450900
C451	C45	0.578690	0.074700	0.601600
C461	C46	0.610950	0.037300	0.661500
C471	C47	0.621200	0.986600	0.616500
H241	H24	0.642200	0.961400	0.659900
C481	C48	0.601000	0.971500	0.506400
H251	H25	0.608700	0.936600	0.475200
C491	C49	0.682490	0.034200	0.805900
C501	C50	0.688480	0.003820	0.906700
C511	C51	0.741280	0.990780	0.946500
H261	H26	0.745600	0.970600	0.016000
C521	C52	0.787920	0.007700	0.883400
C531	C53	0.780170	0.037300	0.780200
H271	H27	0.810800	0.048600	0.736400
C541	C54	0.727900	0.050200	0.741500
H281	H28	0.723300	0.069900	0.671500
C551	C55	0.548160	0.993610	0.321900
C561	C56	0.844900	0.995920	0.930300
Cu91	Cu9	0.537540	0.491500	0.898500
Cu101	Cu10	0.401350	0.455870	0.852680
O491	O49	0.447070	0.438850	0.716000
O501	O50	0.530500	0.479210	0.732200
O511	O51	0.518530	0.116050	0.123100
O521	O52	0.464620	0.152020	0.982600
O531	O53	0.666790	0.473700	0.421100
O541	O54	0.633610	0.458270	0.223400
O551	O55	0.669500	0.382800	0.334000
O561	O56	0.530290	0.392930	0.958600
O571	O57	0.438390	0.351580	0.935800
O581	O58	0.458010	0.408200	0.105000
O591	O59	0.457660	0.502530	0.927100
H291	H29	0.453900	0.532800	0.895200
O601	O60	0.552680	0.370130	0.226200
S91	S9	0.641540	0.435440	0.339840
S101	S10	0.480220	0.370260	0.015800
C571	C57	0.508870	0.430630	0.556100
C581	C58	0.559870	0.442180	0.507700
H301	H30	0.584700	0.464400	0.549100
C591	C59	0.574700	0.421310	0.398400
C601	C60	0.537300	0.389050	0.338500
C611	C61	0.486600	0.378800	0.383500
H311	H31	0.461400	0.357800	0.340100
C621	C62	0.471500	0.399000	0.493600
H321	H32	0.436600	0.391300	0.524800
C631	C63	0.534200	0.317510	0.194100
C641	C64	0.503820	0.311520	0.093300
C651	C65	0.490780	0.258720	0.053500
H331	H33	0.470600	0.254400	0.984000
C661	C66	0.507700	0.212080	0.116600
C671	C67	0.537300	0.219830	0.219800
H341	H34	0.548600	0.189200	0.263600
C681	C68	0.550200	0.272100	0.258500
H351	H35	0.569900	0.276700	0.328500
C691	C69	0.493610	0.451840	0.678100
C701	C70	0.495920	0.155100	0.069700
Cu111	Cu11	0.962460	0.008500	0.898500
Cu121	Cu12	0.098650	0.044130	0.852680
O611	O61	0.052930	0.061150	0.716000
O621	O62	0.969500	0.020790	0.732200
O631	O63	0.981470	0.383950	0.123100
O641	O64	0.035380	0.347980	0.982600
O651	O65	0.833210	0.026300	0.421100
O661	O66	0.866390	0.041730	0.223400
O671	O67	0.830500	0.117200	0.334000
O681	O68	0.969710	0.107070	0.958600
O691	O69	0.061610	0.148420	0.935800
O701	O70	0.041990	0.091800	0.105000
O711	O71	0.042340	0.997470	0.927100
H361	H36	0.046100	0.967200	0.895200
O721	O72	0.947320	0.129870	0.226200
S111	S11	0.858460	0.064560	0.339840
S121	S12	0.019780	0.129740	0.015800
C711	C71	0.991130	0.069370	0.556100
C721	C72	0.940130	0.057820	0.507700
H371	H37	0.915300	0.035600	0.549100
C731	C73	0.925300	0.078690	0.398400
C741	C74	0.962700	0.110950	0.338500
C751	C75	0.013400	0.121200	0.383500
H381	H38	0.038600	0.142200	0.340100
C761	C76	0.028500	0.101000	0.493600
H391	H39	0.063400	0.108700	0.524800
C771	C77	0.965800	0.182490	0.194100
C781	C78	0.996180	0.188480	0.093300
C791	C79	0.009220	0.241280	0.053500
H401	H40	0.029400	0.245600	0.984000
C801	C80	0.992300	0.287920	0.116600
C811	C81	0.962700	0.280170	0.219800
H411	H41	0.951400	0.310800	0.263600
C821	C82	0.949800	0.227900	0.258500
H421	H42	0.930100	0.223300	0.328500
C831	C83	0.006390	0.048160	0.678100
C841	C84	0.004080	0.344900	0.069700
Cu131	Cu13	0.008500	0.537540	0.898500
Cu141	Cu14	0.044130	0.401350	0.852680
O731	O73	0.061150	0.447070	0.716000
O741	O74	0.020790	0.530500	0.732200
O751	O75	0.383950	0.518530	0.123100
O761	O76	0.347980	0.464620	0.982600
O771	O77	0.026300	0.666790	0.421100
O781	O78	0.041730	0.633610	0.223400
O791	O79	0.117200	0.669500	0.334000
O801	O80	0.107070	0.530290	0.958600
O811	O81	0.148420	0.438390	0.935800
O821	O82	0.091800	0.458010	0.105000
O831	O83	0.997470	0.457660	0.927100
H431	H43	0.967200	0.453900	0.895200
O841	O84	0.129870	0.552680	0.226200
S131	S13	0.064560	0.641540	0.339840
S141	S14	0.129740	0.480220	0.015800
C851	C85	0.069370	0.508870	0.556100
C861	C86	0.057820	0.559870	0.507700
H441	H44	0.035600	0.584700	0.549100
C871	C87	0.078690	0.574700	0.398400
C881	C88	0.110950	0.537300	0.338500
C891	C89	0.121200	0.486600	0.383500
H451	H45	0.142200	0.461400	0.340100
C901	C90	0.101000	0.471500	0.493600
H461	H46	0.108700	0.436600	0.524800
C911	C91	0.182490	0.534200	0.194100
C921	C92	0.188480	0.503820	0.093300
C931	C93	0.241280	0.490780	0.053500
H471	H47	0.245600	0.470600	0.984000
C941	C94	0.287920	0.507700	0.116600
C951	C95	0.280170	0.537300	0.219800
H481	H48	0.310800	0.548600	0.263600
C961	C96	0.227900	0.550200	0.258500
H491	H49	0.223300	0.569900	0.328500
C971	C97	0.048160	0.493610	0.678100
C981	C98	0.344900	0.495920	0.069700
Cu151	Cu15	0.491500	0.962460	0.898500
Cu161	Cu16	0.455870	0.098650	0.852680
O851	O85	0.438850	0.052930	0.716000
O861	O86	0.479210	0.969500	0.732200
O871	O87	0.116050	0.981470	0.123100
O881	O88	0.152020	0.035380	0.982600
O891	O89	0.473700	0.833210	0.421100
O901	O90	0.458270	0.866390	0.223400
O911	O91	0.382800	0.830500	0.334000
O921	O92	0.392930	0.969710	0.958600
O931	O93	0.351580	0.061610	0.935800
O941	O94	0.408200	0.041990	0.105000
O951	O95	0.502530	0.042340	0.927100
H501	H50	0.532800	0.046100	0.895200
O961	O96	0.370130	0.947320	0.226200
S151	S15	0.435440	0.858460	0.339840
S161	S16	0.370260	0.019780	0.015800
C991	C99	0.430630	0.991130	0.556100
C1001	C100	0.442180	0.940130	0.507700
H511	H51	0.464400	0.915300	0.549100
C1011	C101	0.421310	0.925300	0.398400
C1021	C102	0.389050	0.962700	0.338500
C1031	C103	0.378800	0.013400	0.383500
H521	H52	0.357800	0.038600	0.340100
C1041	C104	0.399000	0.028500	0.493600
H531	H53	0.391300	0.063400	0.524800
C1051	C105	0.317510	0.965800	0.194100
C1061	C106	0.311520	0.996180	0.093300
C1071	C107	0.258720	0.009220	0.053500
H541	H54	0.254400	0.029400	0.984000
C1081	C108	0.212080	0.992300	0.116600
C1091	C109	0.219830	0.962700	0.219800
H551	H55	0.189200	0.951400	0.263600
C1101	C110	0.272100	0.949800	0.258500
H561	H56	0.276700	0.930100	0.328500
C1111	C111	0.451840	0.006390	0.678100
C1121	C112	0.155100	0.004080	0.069700
