data_VINHEH_charged_PM
_symmetry_space_group_name_H-M	'P1'
_cell_length_a	14.142800
_cell_length_b	20.382600
_cell_length_c	21.129000
_cell_angle_alpha	115.256000
_cell_angle_beta	109.553000
_cell_angle_gamma	90.000000
_symmetry_Int_Tables_number 1

loop_
_symmetry_equiv_pos_as_xyz
'x,y,z'

loop_
_atom_site_label
_atom_site_type_symbol
_atom_site_fract_x
_atom_site_fract_y
_atom_site_fract_z
Mn11	Mn1	0.972120	0.678190	0.596460
Mn21	Mn2	0.193650	0.850040	0.318460
Mn31	Mn3	0.375660	0.321810	0.403540
Mn41	Mn4	0.875190	0.149960	0.681540
Mn51	Mn5	0.722080	0.000000	0.000000
Cr11	Cr1	0.665060	0.454910	0.358200
Cr21	Cr2	0.008350	0.902420	0.520500
Cr31	Cr3	0.946060	0.789910	0.028220
Cr41	Cr4	0.306860	0.545090	0.641800
Cr51	Cr5	0.487850	0.097580	0.479500
Cr61	Cr6	0.917840	0.210090	0.971780
H11	H1	0.893700	0.744200	0.780200
H21	H2	0.931400	0.667900	0.742600
H31	H3	0.825200	0.683100	0.697200
H41	H4	0.348400	0.683800	0.322200
H51	H5	0.336300	0.749900	0.393800
H61	H6	0.399900	0.766300	0.350600
H71	H7	0.441100	0.905900	0.840400
H81	H8	0.515100	0.965800	0.841200
H91	H9	0.469600	0.988600	0.906200
H101	H10	0.113500	0.255800	0.219800
H111	H11	0.188800	0.332100	0.257400
H121	H12	0.128000	0.316900	0.302800
H131	H13	0.026200	0.316200	0.677800
H141	H14	0.942500	0.250100	0.606200
H151	H15	0.049300	0.233700	0.649400
H161	H16	0.600700	0.094100	0.159600
H171	H17	0.673900	0.034200	0.158800
H181	H18	0.563400	0.011400	0.093800
C11	C1	0.638000	0.461100	0.229600
C21	C2	0.648400	0.381600	0.206600
C31	C3	0.777700	0.573300	0.490200
C41	C4	0.854800	0.535800	0.459800
C51	C5	0.953400	0.770900	0.516200
C61	C6	0.019300	0.825100	0.599200
C71	C7	0.047200	0.881900	0.395200
C81	C8	0.144100	0.870700	0.449200
C91	C9	0.042600	0.775600	0.157600
C101	C10	0.092100	0.854700	0.169600
C111	C11	0.814100	0.890200	0.042400
C121	C12	0.854200	0.887200	0.981600
C131	C13	0.167800	0.626500	0.599200
C141	C14	0.128800	0.597200	0.644600
C151	C15	0.386900	0.956900	0.393600
C161	C16	0.309000	0.001500	0.422200
C171	C17	0.005200	0.680400	0.927200
C181	C18	0.888200	0.659000	0.893000
C191	C19	0.895100	0.705600	0.732800
C201	C20	0.340800	0.735700	0.344400
C211	C21	0.495000	0.949100	0.872800
C221	C22	0.408400	0.538900	0.770400
C231	C23	0.441800	0.618400	0.793400
C241	C24	0.287500	0.426700	0.509800
C251	C25	0.395000	0.464200	0.540200
C261	C26	0.437200	0.229100	0.483800
C271	C27	0.420100	0.174900	0.400800
C281	C28	0.652000	0.118100	0.604800
C291	C29	0.694900	0.129300	0.550800
C301	C30	0.885000	0.224400	0.842400
C311	C31	0.922500	0.145300	0.830400
C321	C32	0.771700	0.109800	0.957600
C331	C33	0.872600	0.112800	0.018400
C341	C34	0.568600	0.373500	0.400800
C351	C35	0.484200	0.402800	0.355400
C361	C36	0.993300	0.043100	0.606400
C371	C37	0.886800	0.998500	0.577800
C381	C38	0.078000	0.319600	0.072800
C391	C39	0.995200	0.341000	0.107000
C401	C40	0.162300	0.294400	0.267200
C411	C41	0.996400	0.264300	0.655600
C421	C42	0.622200	0.050900	0.127200
O11	O1	0.649500	0.336500	0.148600
O21	O2	0.611600	0.477900	0.174600
O31	O3	0.660100	0.368900	0.268200
O41	O4	0.650600	0.505300	0.295200
O51	O5	0.817300	0.475200	0.398200
O61	O6	0.685200	0.547000	0.453200
O71	O7	0.946400	0.563100	0.493000
O81	O8	0.811800	0.630200	0.553800
O91	O9	0.918300	0.709400	0.502400
O101	O10	0.036400	0.801300	0.648200
O111	O11	0.946300	0.795500	0.470600
O121	O12	0.044400	0.890500	0.613600
O131	O13	0.978200	0.901900	0.422200
O141	O14	0.140000	0.879300	0.510800
O151	O15	0.044100	0.871400	0.334600
O161	O16	0.215200	0.852000	0.430200
O171	O17	0.077400	0.762100	0.208000
O181	O18	0.164700	0.893100	0.233600
O191	O19	0.971700	0.743800	0.097000
O201	O20	0.058700	0.868600	0.116400
O211	O21	0.846600	0.845100	0.069000
O221	O22	0.917400	0.844800	0.968800
O231	O23	0.758630	0.934400	0.062260
O241	O24	0.815700	0.922200	0.947600
O251	O25	0.049200	0.610900	0.653000
O261	O26	0.119700	0.670200	0.582200
O271	O27	0.184000	0.558000	0.668400
O281	O28	0.249800	0.607400	0.591200
O291	O29	0.223400	0.974400	0.401000
O301	O30	0.354800	0.890200	0.351400
O311	O31	0.347600	0.070000	0.471400
O321	O32	0.475700	0.992300	0.420200
O331	O33	0.849700	0.702500	0.939000
O341	O34	0.043500	0.737700	0.984600
O351	O35	0.048400	0.638600	0.884800
O361	O36	0.854100	0.603700	0.830800
O371	O37	0.944700	0.736100	0.702400
O381	O38	0.251300	0.746100	0.296600
O391	O39	0.583300	0.929600	0.918000
O401	O40	0.500900	0.663500	0.851400
O411	O41	0.437000	0.522100	0.825400
O421	O42	0.391900	0.631100	0.731800
O431	O43	0.355400	0.494700	0.704800
O441	O44	0.419100	0.524800	0.601800
O451	O45	0.232000	0.453000	0.546800
O461	O46	0.453400	0.436900	0.507000
O471	O47	0.258000	0.369800	0.446200
O481	O48	0.415900	0.290600	0.497600
O491	O49	0.388200	0.198700	0.351800
O501	O50	0.475700	0.204500	0.529400
O511	O51	0.430800	0.109500	0.386400
O521	O52	0.556000	0.098100	0.577800
O531	O53	0.629200	0.120700	0.489200
O541	O54	0.709500	0.128600	0.665400
O551	O55	0.785000	0.148000	0.569800
O561	O56	0.869400	0.237900	0.792000
O571	O57	0.931100	0.106900	0.766400
O581	O58	0.874700	0.256200	0.903000
O591	O59	0.942300	0.131400	0.883600
O601	O60	0.777600	0.154900	0.931000
O611	O61	0.948600	0.155200	0.031200
O621	O62	0.696370	0.065600	0.937740
O631	O63	0.868100	0.077800	0.052400
O641	O64	0.396200	0.389100	0.347000
O651	O65	0.537500	0.329800	0.417800
O661	O66	0.515600	0.442000	0.331600
O671	O67	0.658600	0.392600	0.408800
O681	O68	0.822400	0.025600	0.599000
O691	O69	0.003400	0.109800	0.648600
O701	O70	0.876200	0.930000	0.528600
O711	O71	0.055500	0.007700	0.579800
O721	O72	0.910700	0.297500	0.061000
O731	O73	0.058900	0.262300	0.015400
O741	O74	0.163600	0.361400	0.115200
O751	O75	0.023300	0.396300	0.169200
O761	O76	0.242300	0.263900	0.297600
O771	O77	0.954700	0.253900	0.703400
O781	O78	0.665300	0.070400	0.082000
Fe11	Fe1	0.539060	0.786790	0.626200
H191	H19	0.631500	0.946900	0.551600
H201	H20	0.581600	0.980200	0.613800
H211	H21	0.458000	0.891100	0.505400
H221	H22	0.533100	0.831600	0.498000
H231	H23	0.355600	0.901100	0.570400
H241	H24	0.231600	0.883200	0.652200
H251	H25	0.408000	0.753500	0.719800
H261	H26	0.717400	0.016900	0.725000
H271	H27	0.783000	0.957300	0.739800
H281	H28	0.662500	0.973700	0.798000
H291	H29	0.571400	0.956000	0.720400
H301	H30	0.712700	0.888000	0.827000
H311	H31	0.724400	0.752200	0.848400
H321	H32	0.541200	0.620400	0.630000
H331	H33	0.823100	0.899500	0.634000
H341	H34	0.734000	0.858900	0.553000
H351	H35	0.792700	0.770800	0.592000
H361	H36	0.775900	0.814900	0.669800
H371	H37	0.661700	0.688500	0.491800
H381	H38	0.483900	0.576800	0.387200
H391	H39	0.316400	0.662700	0.519400
H401	H40	0.256700	0.811800	0.726200
H411	H41	0.636000	0.625000	0.749200
H421	H42	0.325500	0.565400	0.401000
C431	C43	0.605200	0.935600	0.584400
C441	C44	0.513800	0.873800	0.534400
C451	C45	0.392800	0.871100	0.590600
C461	C46	0.361100	0.845100	0.634600
C471	C47	0.283600	0.855000	0.660800
C481	C48	0.382100	0.784700	0.697600
C491	C49	0.714300	0.964300	0.713400
C501	C50	0.638300	0.943800	0.742800
C511	C51	0.670300	0.852400	0.778000
C521	C52	0.651700	0.770400	0.758200
C531	C53	0.681600	0.735200	0.797000
C541	C54	0.579500	0.662500	0.675600
C551	C55	0.752500	0.872400	0.607200
C561	C56	0.749100	0.802600	0.615800
C571	C57	0.617400	0.705500	0.518600
C581	C58	0.519400	0.667800	0.491000
C591	C59	0.464200	0.607500	0.427800
C601	C60	0.370800	0.656300	0.501600
N11	N1	0.686100	0.920900	0.634800
N21	N2	0.478900	0.850300	0.579400
N31	N3	0.295200	0.815900	0.702400
N41	N4	0.424200	0.802600	0.659200
N51	N5	0.626100	0.870600	0.725600
N61	N6	0.632300	0.664100	0.741400
N71	N7	0.591000	0.731000	0.686400
N81	N8	0.645200	0.763200	0.580400
N91	N9	0.376600	0.601200	0.435000
N101	N10	0.460900	0.696400	0.532400
Fe21	Fe2	0.608660	0.736700	0.204880
H431	H43	0.562500	0.978400	0.265800
H441	H44	0.516400	0.929900	0.295000
H451	H45	0.552000	0.868400	0.154600
H461	H46	0.441000	0.874700	0.159000
H471	H47	0.358300	0.790600	0.152800
H481	H48	0.252900	0.671700	0.157600
H491	H49	0.519100	0.577500	0.209000
H501	H50	0.748100	0.975100	0.290600
H511	H51	0.665500	0.912700	0.213600
H521	H52	0.860300	0.866900	0.252600
H531	H53	0.791100	0.792300	0.131000
H541	H54	0.678500	0.673500	0.968200
H551	H55	0.476700	0.592500	0.025000
H561	H56	0.646800	0.961600	0.398600
H571	H57	0.748000	0.927200	0.398400
H581	H58	0.553300	0.851800	0.348400
H591	H59	0.649700	0.860100	0.419200
H601	H60	0.741700	0.771600	0.407000
H611	H61	0.841400	0.639600	0.363400
H621	H62	0.715000	0.578800	0.142800
H631	H63	0.336400	0.551200	0.163400
H641	H64	0.522300	0.579600	0.925600
H651	H65	0.843300	0.558600	0.244800
C611	C61	0.558800	0.930100	0.266200
C621	C62	0.510400	0.867300	0.183800
C631	C63	0.413100	0.766300	0.166600
C641	C64	0.401300	0.699300	0.169000
C651	C65	0.320000	0.661500	0.164000
C661	C66	0.471100	0.605500	0.193600
C671	C67	0.710800	0.924300	0.265600
C681	C68	0.737500	0.770000	0.136600
C691	C69	0.665800	0.707100	0.078600
C701	C70	0.643700	0.666600	0.996800
C711	C71	0.530900	0.623200	0.028800
C721	C72	0.674000	0.918900	0.369800
C731	C73	0.628100	0.854200	0.367200
C741	C74	0.715900	0.752300	0.353800
C751	C75	0.746100	0.689000	0.308200
C761	C76	0.805200	0.640000	0.316800
C771	C77	0.737000	0.607700	0.195800
C781	C78	0.784700	0.880000	0.249400
N111	N11	0.660200	0.918100	0.301000
N121	N12	0.505000	0.790600	0.185000
N131	N13	0.371000	0.592000	0.172200
N141	N14	0.490400	0.668800	0.188800
N151	N15	0.719900	0.793300	0.199000
N161	N16	0.554800	0.613400	0.972200
N171	N17	0.589000	0.680900	0.094000
N181	N18	0.651500	0.783100	0.320000
N191	N19	0.805900	0.593600	0.252400
N201	N20	0.709800	0.670000	0.233000
Fe31	Fe3	0.912860	0.213210	0.373800
H661	H66	0.079900	0.053100	0.448400
H671	H67	0.967800	0.019800	0.386200
H681	H68	0.952600	0.108900	0.494600
H691	H69	0.035100	0.168400	0.502000
H701	H70	0.785200	0.098900	0.429600
H711	H71	0.579400	0.116800	0.347800
H721	H72	0.688200	0.246500	0.280200
H731	H73	0.992400	0.983100	0.275000
H741	H74	0.043200	0.042700	0.260200
H751	H75	0.864500	0.026300	0.202000
H761	H76	0.851000	0.044000	0.279600
H771	H77	0.885700	0.112000	0.173000
H781	H78	0.876000	0.247800	0.151600
H791	H79	0.911200	0.379600	0.370000
H801	H80	0.189100	0.100500	0.366000
H811	H81	0.181000	0.141100	0.447000
H821	H82	0.200700	0.229200	0.408000
H831	H83	0.106100	0.185100	0.330200
H841	H84	0.169900	0.311500	0.508200
H851	H85	0.096700	0.423200	0.612800
H861	H86	0.797000	0.337300	0.480600
H871	H87	0.530500	0.188200	0.273800
H881	H88	0.886800	0.375000	0.250800
H891	H89	0.924500	0.434600	0.599000
C791	C79	0.020800	0.064400	0.415600
C801	C80	0.979400	0.126200	0.465600
C811	C81	0.802200	0.128900	0.409400
C821	C82	0.726500	0.154900	0.365400
C831	C83	0.622800	0.145000	0.339200
C841	C84	0.684500	0.215300	0.302400
C851	C85	0.000900	0.035700	0.286600
C861	C86	0.895500	0.056200	0.257200
C871	C87	0.892300	0.147600	0.222000
C881	C88	0.893500	0.229600	0.241800
C891	C89	0.884600	0.264800	0.203000
C901	C90	0.903900	0.337500	0.324400
C911	C91	0.145300	0.127600	0.392800
C921	C92	0.133300	0.197400	0.384200
C931	C93	0.098800	0.294500	0.481400
C941	C94	0.028400	0.332200	0.509000
C951	C95	0.036400	0.392500	0.572200
C961	C96	0.869200	0.343700	0.498400
N211	N21	0.051300	0.079100	0.365200
N221	N22	0.899500	0.149700	0.420600
N231	N23	0.592800	0.184100	0.297600
N241	N24	0.765000	0.197400	0.340800
N251	N25	0.900500	0.129400	0.274400
N261	N26	0.890900	0.335900	0.258600
N271	N27	0.904600	0.269000	0.313600
N281	N28	0.064800	0.236800	0.419600
N291	N29	0.941600	0.398800	0.565000
N301	N30	0.928500	0.303600	0.467600
Fe41	Fe4	0.403780	0.263300	0.795120
H901	H90	0.296700	0.021600	0.734200
H911	H91	0.221400	0.070100	0.705000
H921	H92	0.397400	0.131600	0.845400
H931	H93	0.282000	0.125300	0.841000
H941	H94	0.205500	0.209400	0.847200
H951	H95	0.095300	0.328300	0.842400
H961	H96	0.310100	0.422500	0.791000
H971	H97	0.457500	0.024900	0.709400
H981	H98	0.451900	0.087300	0.786400
H991	H99	0.607700	0.133100	0.747400
H1001	H100	0.660100	0.207700	0.869000
H1011	H101	0.710300	0.326500	0.031800
H1021	H102	0.451700	0.407500	0.975000
H1031	H103	0.248200	0.038400	0.601400
H1041	H104	0.349600	0.072800	0.601600
H1051	H105	0.204900	0.148200	0.651600
H1061	H106	0.230500	0.139900	0.580800
H1071	H107	0.334700	0.228400	0.593000
H1081	H108	0.478000	0.360400	0.636600
H1091	H109	0.572200	0.421200	0.857200
H1101	H110	0.173000	0.448800	0.836600
H1111	H111	0.596700	0.420400	0.074400
H1121	H112	0.598500	0.441400	0.755200
C971	C97	0.292600	0.069900	0.733800
C981	C98	0.326600	0.132700	0.816200
C991	C99	0.246500	0.233700	0.833400
C1001	C100	0.232300	0.300700	0.831000
C1011	C101	0.156000	0.338500	0.836000
C1021	C102	0.277500	0.394500	0.806400
C1031	C103	0.445200	0.075700	0.734400
C1041	C104	0.600900	0.230000	0.863400
C1051	C105	0.587200	0.292900	0.921400
C1061	C106	0.646900	0.333400	0.003200
C1071	C107	0.502100	0.376800	0.971200
C1081	C108	0.304200	0.081100	0.630200
C1091	C109	0.260900	0.145800	0.632800
C1101	C110	0.362100	0.247700	0.646200
C1111	C111	0.437900	0.311000	0.691800
C1121	C112	0.488400	0.360000	0.683200
C1131	C113	0.541200	0.392300	0.804200
C1141	C114	0.535300	0.120000	0.750600
N311	N31	0.359200	0.081900	0.699000
N321	N32	0.320000	0.209400	0.815000
N331	N33	0.198800	0.408000	0.827800
N341	N34	0.301600	0.331200	0.811200
N351	N35	0.520900	0.206700	0.801000
N361	N36	0.582600	0.386600	0.027800
N371	N37	0.495000	0.319100	0.906000
N381	N38	0.331500	0.216900	0.680000
N391	N39	0.553500	0.406400	0.747600
N401	N40	0.476800	0.330000	0.767000
