data_VIPYOK_clean_PM
_symmetry_space_group_name_H-M	'P1'
_cell_length_a	7.877300
_cell_length_b	10.791000
_cell_length_c	19.708000
_cell_angle_alpha	93.010000
_cell_angle_beta	90.000000
_cell_angle_gamma	90.000000
_symmetry_Int_Tables_number 1

loop_
_symmetry_equiv_pos_as_xyz
'x,y,z'

loop_
_atom_site_label
_atom_site_type_symbol
_atom_site_fract_x
_atom_site_fract_y
_atom_site_fract_z
Mn11	Mn1	0.579930	0.309880	0.984130
Mn21	Mn2	0.642820	0.291220	0.769950
Mn31	Mn3	0.079930	0.690120	0.515870
Mn41	Mn4	0.142820	0.708780	0.730050
Mn51	Mn5	0.420070	0.690120	0.015870
Mn61	Mn6	0.357180	0.708780	0.230050
Mn71	Mn7	0.920070	0.309880	0.484130
Mn81	Mn8	0.857180	0.291220	0.269950
H11	H1	0.122700	0.081600	0.598500
H21	H2	0.979900	0.045300	0.649000
H31	H3	0.021900	0.120900	0.773800
H41	H4	0.254800	0.221400	0.837000
H51	H5	0.428700	0.120100	0.657400
H61	H6	0.622700	0.918400	0.901500
H71	H7	0.479900	0.954700	0.851000
H81	H8	0.521900	0.879100	0.726200
H91	H9	0.754800	0.778600	0.663000
H101	H10	0.928700	0.879900	0.842600
H111	H11	0.877300	0.918400	0.401500
H121	H12	0.020100	0.954700	0.351000
H131	H13	0.978100	0.879100	0.226200
H141	H14	0.745200	0.778600	0.163000
H151	H15	0.571300	0.879900	0.342600
H161	H16	0.377300	0.081600	0.098500
H171	H17	0.520100	0.045300	0.149000
H181	H18	0.478100	0.120900	0.273800
H191	H19	0.245200	0.221400	0.337000
H201	H20	0.071300	0.120100	0.157400
C11	C1	0.449700	0.528600	0.737600
C21	C2	0.445400	0.529300	0.814040
C31	C3	0.389700	0.610300	0.866460
C41	C4	0.307900	0.735900	0.872500
C51	C5	0.141200	0.902800	0.625100
C61	C6	0.100400	0.037800	0.639400
C71	C7	0.131500	0.133100	0.758000
C81	C8	0.261300	0.188000	0.792600
C91	C9	0.357200	0.133300	0.694600
C101	C10	0.949700	0.471400	0.762400
C111	C11	0.945400	0.470700	0.685960
C121	C12	0.889700	0.389700	0.633540
C131	C13	0.807900	0.264100	0.627500
C141	C14	0.641200	0.097200	0.874900
C151	C15	0.600400	0.962200	0.860600
C161	C16	0.631500	0.866900	0.742000
C171	C17	0.761300	0.812000	0.707400
C181	C18	0.857200	0.866700	0.805400
C191	C19	0.550300	0.471400	0.262400
C201	C20	0.554600	0.470700	0.185960
C211	C21	0.610300	0.389700	0.133540
C221	C22	0.692100	0.264100	0.127500
C231	C23	0.858800	0.097200	0.374900
C241	C24	0.899600	0.962200	0.360600
C251	C25	0.868500	0.866900	0.242000
C261	C26	0.738700	0.812000	0.207400
C271	C27	0.642800	0.866700	0.305400
C281	C28	0.050300	0.528600	0.237600
C291	C29	0.054600	0.529300	0.314040
C301	C30	0.110300	0.610300	0.366460
C311	C31	0.192100	0.735900	0.372500
C321	C32	0.358800	0.902800	0.125100
C331	C33	0.399600	0.037800	0.139400
C341	C34	0.368500	0.133100	0.258000
C351	C35	0.238700	0.188000	0.292600
C361	C36	0.142800	0.133300	0.194600
N11	N1	0.512900	0.428900	0.842950
N21	N2	0.498400	0.447300	0.909970
N31	N3	0.426100	0.556500	0.925450
N41	N4	0.404700	0.187400	0.752680
N51	N5	0.193500	0.099100	0.695300
N61	N6	0.012900	0.571100	0.657050
N71	N7	0.998400	0.552700	0.590030
N81	N8	0.926100	0.443500	0.574550
N91	N9	0.904700	0.812600	0.747320
N101	N10	0.693500	0.900900	0.804700
N111	N11	0.487100	0.571100	0.157050
N121	N12	0.501600	0.552700	0.090030
N131	N13	0.573900	0.443500	0.074550
N141	N14	0.595300	0.812600	0.247320
N151	N15	0.806500	0.900900	0.304700
N161	N16	0.987100	0.428900	0.342950
N171	N17	0.001600	0.447300	0.409970
N181	N18	0.073900	0.556500	0.425450
N191	N19	0.095300	0.187400	0.252680
N201	N20	0.306500	0.099100	0.195300
O11	O1	0.238100	0.847400	0.663120
O21	O2	0.064800	0.855700	0.574590
O31	O3	0.533500	0.441700	0.708610
O41	O4	0.372900	0.609800	0.707430
O51	O5	0.250800	0.785500	0.821970
O61	O6	0.303200	0.784900	0.932260
O71	O7	0.738100	0.152600	0.836880
O81	O8	0.564800	0.144300	0.925410
O91	O9	0.033500	0.558300	0.791390
O101	O10	0.872900	0.390200	0.792570
O111	O11	0.750800	0.214500	0.678030
O121	O12	0.803200	0.215100	0.567740
O131	O13	0.761900	0.152600	0.336880
O141	O14	0.935200	0.144300	0.425410
O151	O15	0.466500	0.558300	0.291390
O161	O16	0.627100	0.390200	0.292570
O171	O17	0.749200	0.214500	0.178030
O181	O18	0.696800	0.215100	0.067740
O191	O19	0.261900	0.847400	0.163120
O201	O20	0.435200	0.855700	0.074590
O211	O21	0.966500	0.441700	0.208610
O221	O22	0.127100	0.609800	0.207430
O231	O23	0.249200	0.785500	0.321970
O241	O24	0.196800	0.784900	0.432260
