data_VIPZAX_clean_PM
_symmetry_space_group_name_H-M	'P1'
_cell_length_a	8.193900
_cell_length_b	12.857000
_cell_length_c	17.789000
_cell_angle_alpha	99.860000
_cell_angle_beta	90.000000
_cell_angle_gamma	90.000000
_symmetry_Int_Tables_number 1

loop_
_symmetry_equiv_pos_as_xyz
'x,y,z'

loop_
_atom_site_label
_atom_site_type_symbol
_atom_site_fract_x
_atom_site_fract_y
_atom_site_fract_z
Mn11	Mn1	0.084930	0.384110	0.064670
Mn21	Mn2	0.143470	0.583740	0.288700
Mn31	Mn3	0.584930	0.115890	0.435330
Mn41	Mn4	0.643470	0.916260	0.211300
Mn51	Mn5	0.915070	0.615890	0.935330
Mn61	Mn6	0.856530	0.416260	0.711300
Mn71	Mn7	0.415070	0.884110	0.564670
Mn81	Mn8	0.356530	0.083740	0.788700
H11	H1	0.184500	0.006900	0.363900
H21	H2	0.068100	0.992700	0.245000
H31	H3	0.065200	0.139200	0.182700
H41	H4	0.284300	0.307700	0.365400
H51	H5	0.684500	0.493100	0.136100
H61	H6	0.568100	0.507300	0.255000
H71	H7	0.565200	0.360800	0.317300
H81	H8	0.784300	0.192300	0.134600
H91	H9	0.815500	0.993100	0.636100
H101	H10	0.931900	0.007300	0.755000
H111	H11	0.934800	0.860800	0.817300
H121	H12	0.715700	0.692300	0.634600
H131	H13	0.315500	0.506900	0.863900
H141	H14	0.431900	0.492700	0.745000
H151	H15	0.434800	0.639200	0.682700
H161	H16	0.215700	0.807700	0.865400
C11	C1	0.930900	0.771400	0.257900
C21	C2	0.940700	0.698900	0.181600
C31	C3	0.898200	0.706900	0.107100
C41	C4	0.826000	0.791000	0.067200
C51	C5	0.182000	0.065200	0.339300
C61	C6	0.112600	0.056700	0.268500
C71	C7	0.108800	0.144600	0.231500
C81	C8	0.171300	0.239800	0.269100
C91	C9	0.240900	0.244400	0.340200
C101	C10	0.161500	0.340000	0.234000
C111	C11	0.430900	0.728600	0.242100
C121	C12	0.440700	0.801100	0.318400
C131	C13	0.398200	0.793100	0.392900
C141	C14	0.326000	0.709000	0.432800
C151	C15	0.682000	0.434800	0.160700
C161	C16	0.612600	0.443300	0.231500
C171	C17	0.608800	0.355400	0.268500
C181	C18	0.671300	0.260200	0.230900
C191	C19	0.740900	0.255600	0.159800
C201	C20	0.661500	0.160000	0.266000
C211	C21	0.069100	0.228600	0.742100
C221	C22	0.059300	0.301100	0.818400
C231	C23	0.101800	0.293100	0.892900
C241	C24	0.174000	0.209000	0.932800
C251	C25	0.818000	0.934800	0.660700
C261	C26	0.887400	0.943300	0.731500
C271	C27	0.891200	0.855400	0.768500
C281	C28	0.828700	0.760200	0.730900
C291	C29	0.759100	0.755600	0.659800
C301	C30	0.838500	0.660000	0.766000
C311	C31	0.569100	0.271400	0.757900
C321	C32	0.559300	0.198900	0.681600
C331	C33	0.601800	0.206900	0.607100
C341	C34	0.674000	0.291000	0.567200
C351	C35	0.318000	0.565200	0.839300
C361	C36	0.387400	0.556700	0.768500
C371	C37	0.391200	0.644600	0.731500
C381	C38	0.328700	0.739800	0.769100
C391	C39	0.259100	0.744400	0.840200
C401	C40	0.338500	0.840000	0.734000
N11	N1	0.010100	0.601900	0.179890
N21	N2	0.011200	0.553100	0.107140
N31	N3	0.944800	0.615300	0.062220
N41	N4	0.246600	0.157800	0.373600
N51	N5	0.510100	0.898100	0.320110
N61	N6	0.511200	0.946900	0.392860
N71	N7	0.444800	0.884700	0.437780
N81	N8	0.746600	0.342200	0.126400
N91	N9	0.989900	0.398100	0.820110
N101	N10	0.988800	0.446900	0.892860
N111	N11	0.055200	0.384700	0.937780
N121	N12	0.753400	0.842200	0.626400
N131	N13	0.489900	0.101900	0.679890
N141	N14	0.488800	0.053100	0.607140
N151	N15	0.555200	0.115300	0.562220
N161	N16	0.253400	0.657800	0.873600
O11	O1	0.011700	0.740100	0.311630
O21	O2	0.853000	0.855000	0.265480
O31	O3	0.770000	0.874400	0.104880
O41	O4	0.829100	0.771200	0.995080
O51	O5	0.321500	0.163300	0.442790
O61	O6	0.218300	0.422700	0.272770
O71	O7	0.092000	0.331600	0.170280
O81	O8	0.511700	0.759900	0.188370
O91	O9	0.353000	0.645000	0.234520
O101	O10	0.270000	0.625600	0.395120
O111	O11	0.329100	0.728800	0.504920
O121	O12	0.821500	0.336700	0.057210
O131	O13	0.718300	0.077300	0.227230
O141	O14	0.592000	0.168400	0.329720
O151	O15	0.988300	0.259900	0.688370
O161	O16	0.147000	0.145000	0.734520
O171	O17	0.230000	0.125600	0.895120
O181	O18	0.170900	0.228800	0.004920
O191	O19	0.678500	0.836700	0.557210
O201	O20	0.781700	0.577300	0.727230
O211	O21	0.908000	0.668400	0.829720
O221	O22	0.488300	0.240100	0.811630
O231	O23	0.647000	0.355000	0.765480
O241	O24	0.730000	0.374400	0.604880
O251	O25	0.670900	0.271200	0.495080
O261	O26	0.178500	0.663300	0.942790
O271	O27	0.281700	0.922700	0.772770
O281	O28	0.408000	0.831600	0.670280
