data_VIRQES_clean_PM
_symmetry_space_group_name_H-M	'P1'
_cell_length_a	7.830000
_cell_length_b	8.041000
_cell_length_c	9.652000
_cell_angle_alpha	76.290000
_cell_angle_beta	78.470000
_cell_angle_gamma	86.360000
_symmetry_Int_Tables_number 1

loop_
_symmetry_equiv_pos_as_xyz
'x,y,z'

loop_
_atom_site_label
_atom_site_type_symbol
_atom_site_fract_x
_atom_site_fract_y
_atom_site_fract_z
Mn11	Mn1	0.190760	0.310330	0.614600
Mn21	Mn2	0.842830	0.033890	0.748180
P11	P1	0.077800	0.732900	0.590300
O11	O1	0.415700	0.360100	0.703900
O21	O2	0.344400	0.061600	0.649300
O31	O3	0.031100	0.158500	0.838200
O41	O4	0.074400	0.540500	0.635000
O51	O5	0.186200	0.098500	0.016400
O61	O6	0.590400	0.946900	0.716900
O71	O7	0.653800	0.239000	0.783000
O81	O8	0.274800	0.785900	0.565000
O91	O9	0.971700	0.810700	0.709900
O101	O10	0.016600	0.801500	0.445800
C11	C1	0.519600	0.238000	0.730800
C21	C2	0.481700	0.067000	0.695100
C31	C3	0.063900	0.073500	0.958900
H11	H1	0.284000	0.874000	0.585000
Mn31	Mn3	0.809240	0.689670	0.385400
Mn41	Mn4	0.157170	0.966110	0.251820
P21	P2	0.922200	0.267100	0.409700
O111	O11	0.584300	0.639900	0.296100
O121	O12	0.655600	0.938400	0.350700
O131	O13	0.968900	0.841500	0.161800
O141	O14	0.925600	0.459500	0.365000
O151	O15	0.813800	0.901500	0.983600
O161	O16	0.409600	0.053100	0.283100
O171	O17	0.346200	0.761000	0.217000
O181	O18	0.725200	0.214100	0.435000
O191	O19	0.028300	0.189300	0.290100
O201	O20	0.983400	0.198500	0.554200
C41	C4	0.480400	0.762000	0.269200
C51	C5	0.518300	0.933000	0.304900
C61	C6	0.936100	0.926500	0.041100
H21	H2	0.716000	0.126000	0.415000
