data_VIRVEY_clean_PM
_symmetry_space_group_name_H-M	'P1'
_cell_length_a	12.766000
_cell_length_b	23.340000
_cell_length_c	14.903000
_cell_angle_alpha	90.000000
_cell_angle_beta	90.000000
_cell_angle_gamma	90.000000
_symmetry_Int_Tables_number 1

loop_
_symmetry_equiv_pos_as_xyz
'x,y,z'

loop_
_atom_site_label
_atom_site_type_symbol
_atom_site_fract_x
_atom_site_fract_y
_atom_site_fract_z
Zn11	Zn1	0.849440	0.098630	0.488280
Zn21	Zn2	0.747460	0.984680	0.605800
Zn31	Zn3	0.150560	0.901370	0.988280
Zn41	Zn4	0.252540	0.015320	0.105800
Zn51	Zn5	0.650560	0.598630	0.488280
Zn61	Zn6	0.752540	0.484680	0.605800
Zn71	Zn7	0.349440	0.401370	0.988280
Zn81	Zn8	0.247460	0.515320	0.105800
H11	H1	0.932100	0.169400	0.733600
H21	H2	0.978400	0.011800	0.831200
H31	H3	0.101400	0.150900	0.951600
H41	H4	0.123000	0.354900	0.956000
H51	H5	0.002800	0.500600	0.860400
H61	H6	0.921700	0.349700	0.756100
H71	H7	0.067900	0.830600	0.233600
H81	H8	0.021600	0.988200	0.331200
H91	H9	0.898600	0.849100	0.451600
H101	H10	0.877000	0.645100	0.456000
H111	H11	0.997200	0.499400	0.360400
H121	H12	0.078300	0.650300	0.256100
H131	H13	0.567900	0.669400	0.733600
H141	H14	0.521600	0.511800	0.831200
H151	H15	0.398600	0.650900	0.951600
H161	H16	0.377000	0.854900	0.956000
H171	H17	0.497200	0.000600	0.860400
H181	H18	0.578300	0.849700	0.756100
H191	H19	0.432100	0.330600	0.233600
H201	H20	0.478400	0.488200	0.331200
H211	H21	0.601400	0.349100	0.451600
H221	H22	0.623000	0.145100	0.456000
H231	H23	0.502800	0.999400	0.360400
H241	H24	0.421700	0.150300	0.256100
Pt11	Pt1	0.026660	0.255890	0.850730
Pt21	Pt2	0.973340	0.744110	0.350730
Pt31	Pt3	0.473340	0.755890	0.850730
Pt41	Pt4	0.526660	0.244110	0.350730
C11	C1	0.963100	0.145400	0.776000
C21	C2	0.948900	0.087000	0.767800
C31	C3	0.990400	0.051000	0.833100
C41	C4	0.050100	0.075200	0.901300
C51	C5	0.062600	0.134400	0.905700
C61	C6	0.894000	0.065000	0.685200
C71	C7	0.105400	0.036800	0.968000
C81	C8	0.080500	0.374000	0.915100
C91	C9	0.074300	0.433100	0.917700
C101	C10	0.009300	0.461100	0.858600
C111	C11	0.954200	0.428900	0.796200
C121	C12	0.961300	0.370600	0.796400
C131	C13	0.133900	0.467200	0.984800
C141	C14	0.883900	0.458000	0.727300
C151	C15	0.036900	0.854600	0.276000
C161	C16	0.051100	0.913000	0.267800
C171	C17	0.009600	0.949000	0.333100
C181	C18	0.949900	0.924800	0.401300
C191	C19	0.937400	0.865600	0.405700
C201	C20	0.106000	0.935000	0.185200
C211	C21	0.894600	0.963200	0.468000
C221	C22	0.919500	0.626000	0.415100
C231	C23	0.925700	0.566900	0.417700
C241	C24	0.990700	0.538900	0.358600
C251	C25	0.045800	0.571100	0.296200
C261	C26	0.038700	0.629400	0.296400
C271	C27	0.866100	0.532800	0.484800
C281	C28	0.116100	0.542000	0.227300
C291	C29	0.536900	0.645400	0.776000
C301	C30	0.551100	0.587000	0.767800
C311	C31	0.509600	0.551000	0.833100
C321	C32	0.449900	0.575200	0.901300
C331	C33	0.437400	0.634400	0.905700
C341	C34	0.606000	0.565000	0.685200
C351	C35	0.394600	0.536800	0.968000
C361	C36	0.419500	0.874000	0.915100
C371	C37	0.425700	0.933100	0.917700
C381	C38	0.490700	0.961100	0.858600
C391	C39	0.545800	0.928900	0.796200
C401	C40	0.538700	0.870600	0.796400
C411	C41	0.366100	0.967200	0.984800
C421	C42	0.616100	0.958000	0.727300
C431	C43	0.463100	0.354600	0.276000
C441	C44	0.448900	0.413000	0.267800
C451	C45	0.490400	0.449000	0.333100
C461	C46	0.550100	0.424800	0.401300
C471	C47	0.562600	0.365600	0.405700
C481	C48	0.394000	0.435000	0.185200
C491	C49	0.605400	0.463200	0.468000
C501	C50	0.580500	0.126000	0.415100
C511	C51	0.574300	0.066900	0.417700
C521	C52	0.509300	0.038900	0.358600
C531	C53	0.454200	0.071100	0.296200
C541	C54	0.461300	0.129400	0.296400
C551	C55	0.633900	0.032800	0.484800
C561	C56	0.383900	0.042000	0.227300
N11	N1	0.019300	0.168720	0.842900
N21	N2	0.024300	0.342250	0.853700
N31	N3	0.980700	0.831280	0.342900
N41	N4	0.975700	0.657750	0.353700
N51	N5	0.480700	0.668720	0.842900
N61	N6	0.475700	0.842250	0.853700
N71	N7	0.519300	0.331280	0.342900
N81	N8	0.524300	0.157750	0.353700
Cl11	Cl1	0.057800	0.261130	0.698380
Cl21	Cl2	0.994030	0.251200	0.002270
Cl31	Cl3	0.942200	0.738870	0.198380
Cl41	Cl4	0.005970	0.748800	0.502270
Cl51	Cl5	0.442200	0.761130	0.698380
Cl61	Cl6	0.505970	0.751200	0.002270
Cl71	Cl7	0.557800	0.238870	0.198380
Cl81	Cl8	0.494030	0.248800	0.502270
O11	O1	0.893700	0.097930	0.618500
O21	O2	0.850900	0.016220	0.691900
O31	O3	0.092800	0.983900	0.957800
O41	O4	0.160900	0.061810	0.025400
O51	O5	0.207700	0.442300	0.029900
O61	O6	0.112200	0.517900	0.997600
O71	O7	0.891300	0.510400	0.715200
O81	O8	0.822900	0.425300	0.682900
O91	O9	0.106300	0.902070	0.118500
O101	O10	0.149100	0.983780	0.191900
O111	O11	0.907200	0.016100	0.457800
O121	O12	0.839100	0.938190	0.525400
O131	O13	0.792300	0.557700	0.529900
O141	O14	0.887800	0.482100	0.497600
O151	O15	0.108700	0.489600	0.215200
O161	O16	0.177100	0.574700	0.182900
O171	O17	0.606300	0.597930	0.618500
O181	O18	0.649100	0.516220	0.691900
O191	O19	0.407200	0.483900	0.957800
O201	O20	0.339100	0.561810	0.025400
O211	O21	0.292300	0.942300	0.029900
O221	O22	0.387800	0.017900	0.997600
O231	O23	0.608700	0.010400	0.715200
O241	O24	0.677100	0.925300	0.682900
O251	O25	0.393700	0.402070	0.118500
O261	O26	0.350900	0.483780	0.191900
O271	O27	0.592800	0.516100	0.457800
O281	O28	0.660900	0.438190	0.525400
O291	O29	0.707700	0.057700	0.529900
O301	O30	0.612200	0.982100	0.497600
O311	O31	0.391300	0.989600	0.215200
O321	O32	0.322900	0.074700	0.182900
