data_VISTOG_clean_PM
_symmetry_space_group_name_H-M	'P1'
_cell_length_a	11.358000
_cell_length_b	12.366000
_cell_length_c	12.619000
_cell_angle_alpha	90.000000
_cell_angle_beta	90.000000
_cell_angle_gamma	104.050000
_symmetry_Int_Tables_number 1

loop_
_symmetry_equiv_pos_as_xyz
'x,y,z'

loop_
_atom_site_label
_atom_site_type_symbol
_atom_site_fract_x
_atom_site_fract_y
_atom_site_fract_z
Cd11	Cd1	0.515500	0.055980	0.371330
Cd21	Cd2	0.308820	0.129960	0.976740
Cd31	Cd3	0.736000	0.489720	0.244010
Cd41	Cd4	0.984500	0.944020	0.871330
Cd51	Cd5	0.191180	0.870040	0.476740
Cd61	Cd6	0.764000	0.510280	0.744010
Cd71	Cd7	0.484500	0.944020	0.628670
Cd81	Cd8	0.691180	0.870040	0.023260
Cd91	Cd9	0.264000	0.510280	0.755990
Cd101	Cd10	0.015500	0.055980	0.128670
Cd111	Cd11	0.808820	0.129960	0.523260
Cd121	Cd12	0.236000	0.489720	0.255990
H11	H1	0.648600	0.909000	0.487200
H21	H2	0.851400	0.091000	0.987200
H31	H3	0.351400	0.091000	0.512800
H41	H4	0.148600	0.909000	0.012800
C11	C1	0.618200	0.234100	0.361500
C21	C2	0.259700	0.275300	0.906200
C31	C3	0.433700	0.486200	0.259200
C41	C4	0.355100	0.100200	0.142800
C51	C5	0.579900	0.955900	0.247700
C61	C6	0.881800	0.765900	0.861500
C71	C7	0.240300	0.724700	0.406200
C81	C8	0.066300	0.513800	0.759200
C91	C9	0.144900	0.899800	0.642800
C101	C10	0.920100	0.044100	0.747700
C111	C11	0.381800	0.765900	0.638500
C121	C12	0.740300	0.724700	0.093800
C131	C13	0.566300	0.513800	0.740800
C141	C14	0.644900	0.899800	0.857200
C151	C15	0.420100	0.044100	0.752300
C161	C16	0.118200	0.234100	0.138500
C171	C17	0.759700	0.275300	0.593800
C181	C18	0.933700	0.486200	0.240800
C191	C19	0.855100	0.100200	0.357200
C201	C20	0.079900	0.955900	0.252300
N11	N1	0.672400	0.322800	0.342900
N21	N2	0.242100	0.351200	0.863000
N31	N3	0.536300	0.490000	0.257300
N41	N4	0.383200	0.087400	0.227100
N51	N5	0.617700	0.932800	0.170000
N61	N6	0.827600	0.677200	0.842900
N71	N7	0.257900	0.648800	0.363000
N81	N8	0.963700	0.510000	0.757300
N91	N9	0.116800	0.912600	0.727100
N101	N10	0.882300	0.067200	0.670000
N111	N11	0.327600	0.677200	0.657100
N121	N12	0.757900	0.648800	0.137000
N131	N13	0.463700	0.510000	0.742700
N141	N14	0.616800	0.912600	0.772900
N151	N15	0.382300	0.067200	0.830000
N161	N16	0.172400	0.322800	0.157100
N171	N17	0.742100	0.351200	0.637000
N181	N18	0.036300	0.490000	0.242700
N191	N19	0.883200	0.087400	0.272900
N201	N20	0.117700	0.932800	0.330000
O11	O1	0.628200	0.997000	0.511200
O21	O2	0.871800	0.003000	0.011200
O31	O3	0.371800	0.003000	0.488800
O41	O4	0.128200	0.997000	0.988800
