data_VITYOO_clean_PM
_symmetry_space_group_name_H-M	'P1'
_cell_length_a	12.143000
_cell_length_b	24.875000
_cell_length_c	19.669000
_cell_angle_alpha	90.000000
_cell_angle_beta	102.900000
_cell_angle_gamma	90.000000
_symmetry_Int_Tables_number 1

loop_
_symmetry_equiv_pos_as_xyz
'x,y,z'

loop_
_atom_site_label
_atom_site_type_symbol
_atom_site_fract_x
_atom_site_fract_y
_atom_site_fract_z
Nd11	Nd1	0.920560	0.449540	0.055230
O11	O1	0.025000	0.399300	0.983800
O21	O2	0.741800	0.453200	0.103000
O31	O3	0.902800	0.468600	0.175700
O41	O4	0.763100	0.454300	0.949600
O51	O5	0.091700	0.501300	0.070300
O61	O6	0.864000	0.543500	0.057100
C11	C1	0.112300	0.412000	0.964500
C21	C2	0.797200	0.467300	0.162100
C31	C3	0.206300	0.370800	0.978700
C41	C4	0.736400	0.481800	0.218500
C51	C5	0.182700	0.317200	0.986400
C61	C6	0.324600	0.389800	0.997600
C71	C7	0.619300	0.482100	0.205200
C81	C8	0.799400	0.493100	0.285300
C91	C9	0.273000	0.281800	0.011500
H11	H1	0.108600	0.304700	0.975300
C101	C10	0.415800	0.356200	0.023700
H21	H2	0.338800	0.426100	0.991800
H31	H3	0.577900	0.473200	0.160900
C111	C11	0.562300	0.495500	0.257400
H41	H4	0.877900	0.491900	0.294800
C121	C12	0.743800	0.506100	0.337500
C131	C13	0.391100	0.301900	0.031100
C141	C14	0.537500	0.373800	0.032500
C151	C15	0.626500	0.508300	0.323300
C161	C16	0.808700	0.518600	0.410100
H51	H5	0.449400	0.278000	0.048600
O71	O7	0.534900	0.420600	0.037500
O81	O8	0.610500	0.341100	0.046300
H61	H6	0.590400	0.518400	0.358300
Nd21	Nd2	0.079440	0.449540	0.444770
O91	O9	0.975000	0.399300	0.516200
O101	O10	0.258200	0.453200	0.397000
O111	O11	0.097200	0.468600	0.324300
O121	O12	0.236900	0.454300	0.550400
O131	O13	0.908300	0.501300	0.429700
O141	O14	0.136000	0.543500	0.442900
C171	C17	0.887700	0.412000	0.535500
C181	C18	0.202800	0.467300	0.337900
C191	C19	0.793700	0.370800	0.521300
C201	C20	0.263600	0.481800	0.281500
C211	C21	0.817300	0.317200	0.513600
C221	C22	0.675400	0.389800	0.502400
C231	C23	0.380700	0.482100	0.294800
C241	C24	0.200600	0.493100	0.214700
C251	C25	0.727000	0.281800	0.488500
H71	H7	0.891400	0.304700	0.524700
C261	C26	0.584200	0.356200	0.476300
H81	H8	0.661200	0.426100	0.508200
H91	H9	0.422100	0.473200	0.339100
C271	C27	0.437700	0.495500	0.242600
H101	H10	0.122100	0.491900	0.205200
C281	C28	0.256200	0.506100	0.162500
C291	C29	0.608900	0.301900	0.468900
C301	C30	0.462500	0.373800	0.467500
C311	C31	0.373500	0.508300	0.176700
C321	C32	0.191300	0.518600	0.089900
H111	H11	0.550600	0.278000	0.451400
O151	O15	0.465100	0.420600	0.462500
O161	O16	0.389500	0.341100	0.453700
H121	H12	0.409600	0.518400	0.141700
Nd31	Nd3	0.079440	0.550460	0.944770
O171	O17	0.975000	0.600700	0.016200
O181	O18	0.258200	0.546800	0.897000
O191	O19	0.097200	0.531400	0.824300
O201	O20	0.236900	0.545700	0.050400
O211	O21	0.908300	0.498700	0.929700
O221	O22	0.136000	0.456500	0.942900
C331	C33	0.887700	0.588000	0.035500
C341	C34	0.202800	0.532700	0.837900
C351	C35	0.793700	0.629200	0.021300
C361	C36	0.263600	0.518200	0.781500
C371	C37	0.817300	0.682800	0.013600
C381	C38	0.675400	0.610200	0.002400
C391	C39	0.380700	0.517900	0.794800
C401	C40	0.200600	0.506900	0.714700
C411	C41	0.727000	0.718200	0.988500
H131	H13	0.891400	0.695300	0.024700
C421	C42	0.584200	0.643800	0.976300
H141	H14	0.661200	0.573900	0.008200
H151	H15	0.422100	0.526800	0.839100
C431	C43	0.437700	0.504500	0.742600
H161	H16	0.122100	0.508100	0.705200
C441	C44	0.256200	0.493900	0.662500
C451	C45	0.608900	0.698100	0.968900
C461	C46	0.462500	0.626200	0.967500
C471	C47	0.373500	0.491700	0.676700
C481	C48	0.191300	0.481400	0.589900
H171	H17	0.550600	0.722000	0.951400
O231	O23	0.465100	0.579400	0.962500
O241	O24	0.389500	0.658900	0.953700
H181	H18	0.409600	0.481600	0.641700
Nd41	Nd4	0.920560	0.550460	0.555230
O251	O25	0.025000	0.600700	0.483800
O261	O26	0.741800	0.546800	0.603000
O271	O27	0.902800	0.531400	0.675700
O281	O28	0.763100	0.545700	0.449600
O291	O29	0.091700	0.498700	0.570300
O301	O30	0.864000	0.456500	0.557100
C491	C49	0.112300	0.588000	0.464500
C501	C50	0.797200	0.532700	0.662100
C511	C51	0.206300	0.629200	0.478700
C521	C52	0.736400	0.518200	0.718500
C531	C53	0.182700	0.682800	0.486400
C541	C54	0.324600	0.610200	0.497600
C551	C55	0.619300	0.517900	0.705200
C561	C56	0.799400	0.506900	0.785300
C571	C57	0.273000	0.718200	0.511500
H191	H19	0.108600	0.695300	0.475300
C581	C58	0.415800	0.643800	0.523700
H201	H20	0.338800	0.573900	0.491800
H211	H21	0.577900	0.526800	0.660900
C591	C59	0.562300	0.504500	0.757400
H221	H22	0.877900	0.508100	0.794800
C601	C60	0.743800	0.493900	0.837500
C611	C61	0.391100	0.698100	0.531100
C621	C62	0.537500	0.626200	0.532500
C631	C63	0.626500	0.491700	0.823300
C641	C64	0.808700	0.481400	0.910100
H231	H23	0.449400	0.722000	0.548600
O311	O31	0.534900	0.579400	0.537500
O321	O32	0.610500	0.658900	0.546300
H241	H24	0.590400	0.481600	0.858300
Nd51	Nd5	0.420560	0.949540	0.055230
O331	O33	0.525000	0.899300	0.983800
O341	O34	0.241800	0.953200	0.103000
O351	O35	0.402800	0.968600	0.175700
O361	O36	0.263100	0.954300	0.949600
O371	O37	0.591700	0.001300	0.070300
O381	O38	0.364000	0.043500	0.057100
C651	C65	0.612300	0.912000	0.964500
C661	C66	0.297200	0.967300	0.162100
C671	C67	0.706300	0.870800	0.978700
C681	C68	0.236400	0.981800	0.218500
C691	C69	0.682700	0.817200	0.986400
C701	C70	0.824600	0.889800	0.997600
C711	C71	0.119300	0.982100	0.205200
C721	C72	0.299400	0.993100	0.285300
C731	C73	0.773000	0.781800	0.011500
H251	H25	0.608600	0.804700	0.975300
C741	C74	0.915800	0.856200	0.023700
H261	H26	0.838800	0.926100	0.991800
H271	H27	0.077900	0.973200	0.160900
C751	C75	0.062300	0.995500	0.257400
H281	H28	0.377900	0.991900	0.294800
C761	C76	0.243800	0.006100	0.337500
C771	C77	0.891100	0.801900	0.031100
C781	C78	0.037500	0.873800	0.032500
C791	C79	0.126500	0.008300	0.323300
C801	C80	0.308700	0.018600	0.410100
H291	H29	0.949400	0.778000	0.048600
O391	O39	0.034900	0.920600	0.037500
O401	O40	0.110500	0.841100	0.046300
H301	H30	0.090400	0.018400	0.358300
Nd61	Nd6	0.579440	0.949540	0.444770
O411	O41	0.475000	0.899300	0.516200
O421	O42	0.758200	0.953200	0.397000
O431	O43	0.597200	0.968600	0.324300
O441	O44	0.736900	0.954300	0.550400
O451	O45	0.408300	0.001300	0.429700
O461	O46	0.636000	0.043500	0.442900
C811	C81	0.387700	0.912000	0.535500
C821	C82	0.702800	0.967300	0.337900
C831	C83	0.293700	0.870800	0.521300
C841	C84	0.763600	0.981800	0.281500
C851	C85	0.317300	0.817200	0.513600
C861	C86	0.175400	0.889800	0.502400
C871	C87	0.880700	0.982100	0.294800
C881	C88	0.700600	0.993100	0.214700
C891	C89	0.227000	0.781800	0.488500
H311	H31	0.391400	0.804700	0.524700
C901	C90	0.084200	0.856200	0.476300
H321	H32	0.161200	0.926100	0.508200
H331	H33	0.922100	0.973200	0.339100
C911	C91	0.937700	0.995500	0.242600
H341	H34	0.622100	0.991900	0.205200
C921	C92	0.756200	0.006100	0.162500
C931	C93	0.108900	0.801900	0.468900
C941	C94	0.962500	0.873800	0.467500
C951	C95	0.873500	0.008300	0.176700
C961	C96	0.691300	0.018600	0.089900
H351	H35	0.050600	0.778000	0.451400
O471	O47	0.965100	0.920600	0.462500
O481	O48	0.889500	0.841100	0.453700
H361	H36	0.909600	0.018400	0.141700
Nd71	Nd7	0.579440	0.050460	0.944770
O491	O49	0.475000	0.100700	0.016200
O501	O50	0.758200	0.046800	0.897000
O511	O51	0.597200	0.031400	0.824300
O521	O52	0.736900	0.045700	0.050400
O531	O53	0.408300	0.998700	0.929700
O541	O54	0.636000	0.956500	0.942900
C971	C97	0.387700	0.088000	0.035500
C981	C98	0.702800	0.032700	0.837900
C991	C99	0.293700	0.129200	0.021300
C1001	C100	0.763600	0.018200	0.781500
C1011	C101	0.317300	0.182800	0.013600
C1021	C102	0.175400	0.110200	0.002400
C1031	C103	0.880700	0.017900	0.794800
C1041	C104	0.700600	0.006900	0.714700
C1051	C105	0.227000	0.218200	0.988500
H371	H37	0.391400	0.195300	0.024700
C1061	C106	0.084200	0.143800	0.976300
H381	H38	0.161200	0.073900	0.008200
H391	H39	0.922100	0.026800	0.839100
C1071	C107	0.937700	0.004500	0.742600
H401	H40	0.622100	0.008100	0.705200
C1081	C108	0.756200	0.993900	0.662500
C1091	C109	0.108900	0.198100	0.968900
C1101	C110	0.962500	0.126200	0.967500
C1111	C111	0.873500	0.991700	0.676700
C1121	C112	0.691300	0.981400	0.589900
H411	H41	0.050600	0.222000	0.951400
O551	O55	0.965100	0.079400	0.962500
O561	O56	0.889500	0.158900	0.953700
H421	H42	0.909600	0.981600	0.641700
Nd81	Nd8	0.420560	0.050460	0.555230
O571	O57	0.525000	0.100700	0.483800
O581	O58	0.241800	0.046800	0.603000
O591	O59	0.402800	0.031400	0.675700
O601	O60	0.263100	0.045700	0.449600
O611	O61	0.591700	0.998700	0.570300
O621	O62	0.364000	0.956500	0.557100
C1131	C113	0.612300	0.088000	0.464500
C1141	C114	0.297200	0.032700	0.662100
C1151	C115	0.706300	0.129200	0.478700
C1161	C116	0.236400	0.018200	0.718500
C1171	C117	0.682700	0.182800	0.486400
C1181	C118	0.824600	0.110200	0.497600
C1191	C119	0.119300	0.017900	0.705200
C1201	C120	0.299400	0.006900	0.785300
C1211	C121	0.773000	0.218200	0.511500
H431	H43	0.608600	0.195300	0.475300
C1221	C122	0.915800	0.143800	0.523700
H441	H44	0.838800	0.073900	0.491800
H451	H45	0.077900	0.026800	0.660900
C1231	C123	0.062300	0.004500	0.757400
H461	H46	0.377900	0.008100	0.794800
C1241	C124	0.243800	0.993900	0.837500
C1251	C125	0.891100	0.198100	0.531100
C1261	C126	0.037500	0.126200	0.532500
C1271	C127	0.126500	0.991700	0.823300
C1281	C128	0.308700	0.981400	0.910100
H471	H47	0.949400	0.222000	0.548600
O631	O63	0.034900	0.079400	0.537500
O641	O64	0.110500	0.158900	0.546300
H481	H48	0.090400	0.981600	0.858300
