data_VITZEF_clean_PM
_symmetry_space_group_name_H-M	'P1'
_cell_length_a	11.647000
_cell_length_b	12.247000
_cell_length_c	13.604000
_cell_angle_alpha	65.010000
_cell_angle_beta	67.880000
_cell_angle_gamma	88.320000
_symmetry_Int_Tables_number 1

loop_
_symmetry_equiv_pos_as_xyz
'x,y,z'

loop_
_atom_site_label
_atom_site_type_symbol
_atom_site_fract_x
_atom_site_fract_y
_atom_site_fract_z
O11	O1	0.475100	0.030700	0.311700
O21	O2	0.540300	0.190000	0.319700
O31	O3	0.282400	0.952200	0.580400
O41	O4	0.567300	0.842300	0.442100
C11	C1	0.491000	0.855700	0.735000
Sm11	Sm1	0.570530	0.171170	0.671860
C21	C2	0.769100	0.127500	0.432200
C31	C3	0.492300	0.772700	0.852400
O51	O5	0.739700	0.325500	0.593600
O61	O6	0.709300	0.192000	0.477900
O71	O7	0.500400	0.302300	0.776000
O81	O8	0.560000	0.129200	0.871300
O91	O9	0.474800	0.331900	0.555600
O101	O10	0.735200	0.056600	0.705100
C41	C4	0.908200	0.137300	0.392800
C51	C5	0.489100	0.814800	0.933800
C61	C6	0.496200	0.650000	0.879500
C71	C7	0.976000	0.221000	0.403300
C81	C8	0.968300	0.051400	0.357500
C91	C9	0.485900	0.731100	0.042200
H11	H1	0.489100	0.897000	0.915700
C101	C10	0.497700	0.564500	0.986400
H21	H2	0.497900	0.624000	0.823900
C111	C11	0.102800	0.219200	0.379600
H31	H3	0.936000	0.278300	0.426400
H41	H4	0.923500	0.996200	0.349600
C121	C12	0.092800	0.048600	0.334500
C131	C13	0.490900	0.609000	0.068500
C141	C14	0.475200	0.770500	0.136400
C151	C15	0.160800	0.131900	0.343800
C161	C16	0.175200	0.298100	0.400500
C171	C17	0.155500	0.948200	0.308800
H51	H5	0.489800	0.555300	0.141800
H61	H6	0.245900	0.130300	0.326200
C181	C18	0.158500	0.419700	0.374500
C191	C19	0.260500	0.251200	0.450800
O111	O11	0.082600	0.868900	0.310300
C201	C20	0.227400	0.489900	0.396900
H71	H7	0.100900	0.453300	0.342100
C211	C21	0.330000	0.322300	0.472500
H81	H8	0.271500	0.170200	0.470500
C221	C22	0.208300	0.621600	0.370000
C231	C23	0.313400	0.443300	0.443900
C241	C24	0.419800	0.268000	0.529900
O121	O12	0.142000	0.670200	0.313200
H91	H9	0.360300	0.492300	0.456600
O131	O13	0.524900	0.969300	0.688300
O141	O14	0.459700	0.810000	0.680300
O151	O15	0.717600	0.047800	0.419600
O161	O16	0.432700	0.157700	0.557900
C251	C25	0.509000	0.144300	0.265000
Sm21	Sm2	0.429480	0.828830	0.328140
C261	C26	0.230900	0.872500	0.567800
C271	C27	0.507700	0.227300	0.147600
O171	O17	0.260300	0.674500	0.406400
O181	O18	0.290700	0.808000	0.522100
O191	O19	0.499600	0.697700	0.224000
O201	O20	0.440000	0.870800	0.128700
O211	O21	0.525200	0.668100	0.444400
O221	O22	0.264800	0.943400	0.294900
C281	C28	0.091800	0.862700	0.607200
C291	C29	0.510900	0.185200	0.066200
C301	C30	0.503800	0.350000	0.120500
C311	C31	0.024000	0.779000	0.596700
C321	C32	0.031700	0.948600	0.642500
C331	C33	0.514100	0.268900	0.957800
H101	H10	0.510900	0.103000	0.084300
C341	C34	0.502300	0.435500	0.013600
H111	H11	0.502100	0.376000	0.176100
C351	C35	0.897200	0.780800	0.620400
H121	H12	0.064000	0.721700	0.573600
H131	H13	0.076500	0.003800	0.650400
C361	C36	0.907200	0.951400	0.665500
C371	C37	0.509100	0.391000	0.931500
C381	C38	0.524800	0.229500	0.863600
C391	C39	0.839200	0.868100	0.656200
C401	C40	0.824800	0.701900	0.599500
C411	C41	0.844500	0.051800	0.691200
H141	H14	0.510200	0.444700	0.858200
H151	H15	0.754100	0.869700	0.673800
C421	C42	0.841500	0.580300	0.625500
C431	C43	0.739500	0.748800	0.549200
O231	O23	0.917400	0.131100	0.689700
C441	C44	0.772600	0.510100	0.603100
H161	H16	0.899100	0.546700	0.657900
C451	C45	0.670000	0.677700	0.527500
H171	H17	0.728500	0.829800	0.529500
C461	C46	0.791700	0.378400	0.630000
C471	C47	0.686600	0.556700	0.556100
C481	C48	0.580200	0.732000	0.470100
O241	O24	0.858000	0.329800	0.686800
H181	H18	0.639700	0.507700	0.543400
Sm31	Sm3	0.500000	0.000000	0.500000
