data_VIWKIX_clean_PM
_symmetry_space_group_name_H-M	'P1'
_cell_length_a	11.006000
_cell_length_b	19.847000
_cell_length_c	23.228000
_cell_angle_alpha	90.000000
_cell_angle_beta	90.000000
_cell_angle_gamma	99.910000
_symmetry_Int_Tables_number 1

loop_
_symmetry_equiv_pos_as_xyz
'x,y,z'

loop_
_atom_site_label
_atom_site_type_symbol
_atom_site_fract_x
_atom_site_fract_y
_atom_site_fract_z
La11	La1	0.461930	0.601770	0.855610
La21	La2	0.538070	0.398230	0.144390
La31	La3	0.148860	0.855270	0.856310
La41	La4	0.851140	0.144730	0.143690
La51	La5	0.038070	0.898230	0.355610
La61	La6	0.648860	0.355270	0.643690
La71	La7	0.961930	0.101770	0.644390
La81	La8	0.351140	0.644730	0.356310
Cu11	Cu1	0.909850	0.102480	0.820380
Cu21	Cu2	0.409850	0.602480	0.679620
Cu31	Cu3	0.198670	0.849960	0.679920
Cu41	Cu4	0.590150	0.397520	0.320380
Cu51	Cu5	0.090150	0.897520	0.179620
Cu61	Cu6	0.801330	0.150040	0.320080
Cu71	Cu7	0.301330	0.650040	0.179920
Cu81	Cu8	0.698670	0.349960	0.820080
H11	H1	0.271800	0.241000	0.205900
H21	H2	0.419500	0.040900	0.581600
H31	H3	0.379200	0.056500	0.303400
H41	H4	0.580500	0.959100	0.418400
H51	H5	0.484200	0.009700	0.803300
H61	H6	0.771800	0.741000	0.294100
H71	H7	0.015800	0.490300	0.303300
H81	H8	0.879200	0.556500	0.196600
H91	H9	0.608600	0.806400	0.299700
H101	H10	0.391400	0.193600	0.700300
H111	H11	0.891400	0.693600	0.799700
H121	H12	0.984200	0.509700	0.696700
H131	H13	0.108600	0.306400	0.200300
H141	H14	0.728200	0.759000	0.794100
H151	H15	0.919500	0.540900	0.918400
H161	H16	0.228200	0.259000	0.705900
H171	H17	0.080500	0.459100	0.081600
H181	H18	0.620800	0.943500	0.696600
H191	H19	0.120800	0.443500	0.803400
H201	H20	0.515800	0.990300	0.196700
C11	C1	0.720600	0.641100	0.279800
C21	C2	0.834900	0.593500	0.784200
C31	C3	0.279400	0.358900	0.720200
C41	C4	0.165100	0.406500	0.215800
C51	C5	0.423000	0.976500	0.454300
C61	C6	0.991200	0.332900	0.259300
C71	C7	0.455600	0.836600	0.674600
C81	C8	0.372900	0.002000	0.503600
C91	C9	0.220600	0.141100	0.220200
C101	C10	0.408900	0.156900	0.721800
C111	C11	0.535800	0.715000	0.729800
C121	C12	0.104100	0.285900	0.761600
C131	C13	0.604100	0.785900	0.738400
C141	C14	0.792400	0.704000	0.274000
C151	C15	0.577000	0.023500	0.545700
C161	C16	0.292400	0.204000	0.226000
C171	C17	0.923000	0.476500	0.045700
C181	C18	0.428200	0.158400	0.291200
C191	C19	0.601400	0.634900	0.311700
C201	C20	0.239400	0.008200	0.510000
C211	C21	0.659100	0.053900	0.594300
C221	C22	0.739400	0.508200	0.990000
C231	C23	0.285200	0.411500	0.183100
C241	C24	0.491200	0.832900	0.240700
C251	C25	0.207600	0.296000	0.726000
C261	C26	0.538000	0.111000	0.790000
C271	C27	0.591100	0.843100	0.278200
C281	C28	0.251900	0.083800	0.249700
C291	C29	0.214800	0.088500	0.683100
C301	C30	0.964200	0.785000	0.229800
C311	C31	0.651500	0.114900	0.826800
C321	C32	0.898600	0.865100	0.811700
C331	C33	0.038000	0.611000	0.710000
C341	C34	0.964900	0.546900	0.716900
C351	C35	0.071800	0.341600	0.791200
C361	C36	0.816700	0.987100	0.759500
C371	C37	0.398600	0.365100	0.688300
C381	C38	0.683300	0.512900	0.259500
C391	C39	0.707600	0.796000	0.774000
C401	C40	0.077000	0.523500	0.954300
C411	C41	0.508800	0.167100	0.759300
C421	C42	0.714800	0.588500	0.816900
C431	C43	0.856600	0.593700	0.215600
C441	C44	0.008800	0.667100	0.740700
C451	C45	0.395900	0.214100	0.261600
C461	C46	0.707200	0.033500	0.260700
C471	C47	0.316700	0.487100	0.740500
C481	C48	0.292800	0.966500	0.739300
C491	C49	0.151500	0.614900	0.673200
C501	C50	0.577900	0.238200	0.768200
C511	C51	0.544400	0.163400	0.325400
C521	C52	0.760600	0.991800	0.490000
C531	C53	0.451600	0.024500	0.548400
C541	C54	0.571800	0.841600	0.708800
C551	C55	0.863700	0.537900	0.753300
C561	C56	0.643400	0.906300	0.715600
C571	C57	0.334900	0.093500	0.715800
C581	C58	0.462000	0.889000	0.210000
C591	C59	0.464200	0.285000	0.270200
C601	C60	0.091100	0.343100	0.221800
C611	C61	0.101400	0.134900	0.188300
C621	C62	0.159100	0.553900	0.905700
C631	C63	0.348500	0.885100	0.173200
C641	C64	0.363700	0.037900	0.746700
C651	C65	0.785200	0.911500	0.316900
C661	C66	0.535100	0.953100	0.216900
C671	C67	0.044400	0.663400	0.174600
C681	C68	0.895900	0.714100	0.238400
C691	C69	0.908900	0.656900	0.778200
C701	C70	0.548400	0.975500	0.451600
C711	C71	0.636300	0.962100	0.253300
C721	C72	0.627100	0.998000	0.496400
C731	C73	0.955600	0.336600	0.825400
C741	C74	0.779400	0.858900	0.779800
C751	C75	0.356600	0.093700	0.284400
C761	C76	0.260600	0.491800	0.010000
C771	C77	0.751900	0.583800	0.250300
C781	C78	0.464900	0.046900	0.783100
C791	C79	0.248100	0.416200	0.749700
C801	C80	0.962000	0.389000	0.290000
C811	C81	0.048400	0.475500	0.048400
C821	C82	0.127100	0.498000	0.003600
C831	C83	0.840900	0.446100	0.094300
C841	C84	0.035800	0.215000	0.770200
C851	C85	0.792800	0.466500	0.760700
C861	C86	0.183300	0.012900	0.240500
C871	C87	0.207200	0.533500	0.239300
C881	C88	0.143400	0.406300	0.784400
C891	C89	0.422100	0.761800	0.231800
C901	C90	0.928200	0.658400	0.208800
C911	C91	0.922100	0.261800	0.268200
C921	C92	0.136300	0.462100	0.246700
C931	C93	0.665100	0.906500	0.284200
C941	C94	0.077900	0.738200	0.731800
C951	C95	0.035100	0.453100	0.283100
C961	C96	0.848500	0.385100	0.326800
C971	C97	0.872900	0.502000	0.996400
C981	C98	0.748100	0.916200	0.750300
C991	C99	0.951600	0.524500	0.951600
C1001	C100	0.340900	0.946100	0.405700
O11	O1	0.592700	0.670700	0.355400
O21	O2	0.090200	0.779000	0.773000
O31	O3	0.797000	0.941900	0.512900
O41	O4	0.961900	0.348800	0.877400
O51	O5	0.141200	0.595300	0.623100
O61	O6	0.526200	0.674700	0.771600
O71	O7	0.604900	0.071300	0.637800
O81	O8	0.506600	0.595400	0.291700
O91	O9	0.326700	0.508000	0.688800
O101	O10	0.878800	0.950200	0.296000
O111	O11	0.384600	0.745300	0.181700
O121	O12	0.641200	0.095300	0.876900
O131	O13	0.538100	0.151200	0.377400
O141	O14	0.746400	0.365700	0.301300
O151	O15	0.760900	0.431600	0.716400
O161	O16	0.973800	0.825300	0.271600
O171	O17	0.473800	0.325300	0.228400
O181	O18	0.378800	0.450200	0.204000
O191	O19	0.771000	0.059800	0.589000
O201	O20	0.993400	0.904600	0.791700
O211	O21	0.173300	0.992000	0.188800
O221	O22	0.356300	0.822400	0.703800
O231	O23	0.203000	0.058100	0.487100
O241	O24	0.246400	0.865700	0.198700
O251	O25	0.328100	0.535700	0.039700
O261	O26	0.038100	0.651200	0.122600
O271	O27	0.407300	0.329300	0.644600
O281	O28	0.507000	0.302000	0.319300
O291	O29	0.753600	0.134300	0.801300
O301	O30	0.092700	0.170700	0.144600
O311	O31	0.895100	0.428700	0.137800
O321	O32	0.792200	0.876500	0.361400
O331	O33	0.253600	0.634300	0.698700
O341	O34	0.621200	0.549800	0.796000
O351	O35	0.007000	0.802000	0.180700
O361	O36	0.884600	0.245300	0.318300
O371	O37	0.171900	0.964300	0.539700
O381	O38	0.703000	0.558100	0.012900
O391	O39	0.026200	0.174700	0.728400
O401	O40	0.104900	0.571300	0.862200
O411	O41	0.409800	0.721000	0.273000
O421	O42	0.395100	0.928700	0.362200
O431	O43	0.260900	0.931600	0.783600
O441	O44	0.229000	0.940200	0.411000
O451	O45	0.858800	0.404700	0.376900
O461	O46	0.145600	0.978000	0.283100
O471	O47	0.115400	0.754700	0.681700
O481	O48	0.729000	0.440200	0.089000
O491	O49	0.777100	0.444800	0.811700
O501	O50	0.993000	0.198000	0.819300
O511	O51	0.854400	0.022000	0.716900
O521	O52	0.909800	0.221000	0.227000
O531	O53	0.615400	0.254700	0.818300
O541	O54	0.643700	0.177600	0.296200
O551	O55	0.826700	0.008000	0.811200
O561	O56	0.006600	0.095400	0.208300
O571	O57	0.590200	0.279000	0.727000
O581	O58	0.856300	0.322400	0.796200
O591	O59	0.297000	0.441900	0.987100
O601	O60	0.239100	0.568400	0.283600
O611	O61	0.493000	0.698000	0.680700
O621	O62	0.121200	0.049800	0.704000
O631	O63	0.461900	0.848800	0.622600
O641	O64	0.493400	0.404600	0.708300
O651	O65	0.673300	0.492000	0.311200
O661	O66	0.722900	0.055200	0.311700
O671	O67	0.207800	0.123500	0.638600
O681	O68	0.292200	0.376500	0.138600
O691	O69	0.907300	0.829300	0.855400
O701	O70	0.143700	0.677600	0.203800
O711	O71	0.358800	0.904700	0.123100
O721	O72	0.277100	0.944800	0.688300
O731	O73	0.707800	0.623500	0.861400
O741	O74	0.645600	0.478000	0.216900
O751	O75	0.739100	0.068400	0.216400
O761	O76	0.354400	0.522000	0.783100
O771	O77	0.222900	0.555200	0.188300
O781	O78	0.271000	0.559800	0.911000
O791	O79	0.828100	0.035700	0.460300
O801	O80	0.671900	0.464300	0.960300
