data_VIWLIY_clean_PM
_symmetry_space_group_name_H-M	'P1'
_cell_length_a	10.985000
_cell_length_b	19.856000
_cell_length_c	20.450000
_cell_angle_alpha	90.000000
_cell_angle_beta	90.000000
_cell_angle_gamma	99.730000
_symmetry_Int_Tables_number 1

loop_
_symmetry_equiv_pos_as_xyz
'x,y,z'

loop_
_atom_site_label
_atom_site_type_symbol
_atom_site_fract_x
_atom_site_fract_y
_atom_site_fract_z
La11	La1	0.464610	0.654940	0.873390
La21	La2	0.659700	0.418280	0.626000
La31	La3	0.035390	0.845060	0.373390
La41	La4	0.840300	0.081720	0.126000
La51	La5	0.535390	0.345060	0.126610
La61	La6	0.159700	0.918280	0.874000
La71	La7	0.340300	0.581720	0.374000
La81	La8	0.964610	0.154940	0.626610
Cu11	Cu1	0.792540	0.089270	0.325930
Cu21	Cu2	0.292540	0.589270	0.174070
Cu31	Cu3	0.580300	0.331610	0.325400
Cu41	Cu4	0.419700	0.668390	0.674600
Cu51	Cu5	0.207460	0.910730	0.674070
Cu61	Cu6	0.707460	0.410730	0.825930
Cu71	Cu7	0.080300	0.831610	0.174600
Cu81	Cu8	0.919700	0.168390	0.825400
H11	H1	0.630900	0.004000	0.695100
H21	H2	0.990600	0.573400	0.688400
H31	H3	0.009400	0.426600	0.311600
H41	H4	0.509400	0.926600	0.188400
H51	H5	0.581500	0.937300	0.421000
H61	H6	0.369100	0.996000	0.304900
H71	H7	0.490600	0.073400	0.811600
H81	H8	0.081500	0.437300	0.079000
H91	H9	0.418500	0.062700	0.579000
H101	H10	0.130900	0.504000	0.804900
H111	H11	0.918500	0.562700	0.921000
H121	H12	0.606900	0.746400	0.309700
H131	H13	0.766600	0.675800	0.316500
H141	H14	0.733400	0.824200	0.816500
H151	H15	0.233400	0.324200	0.683500
H161	H16	0.893100	0.753600	0.809700
H171	H17	0.393100	0.253600	0.690300
H181	H18	0.106900	0.246400	0.190300
H191	H19	0.266600	0.175800	0.183500
H201	H20	0.869100	0.496000	0.195100
C11	C1	0.874100	0.486600	0.986500
C21	C2	0.660800	0.177000	0.832700
C31	C3	0.739400	0.475300	0.968400
C41	C4	0.218300	0.146600	0.672400
C51	C5	0.485000	0.771200	0.243400
C61	C6	0.048700	0.462600	0.047300
C71	C7	0.781700	0.853400	0.327600
C81	C8	0.045000	0.277700	0.759300
C91	C9	0.260600	0.524700	0.031600
C101	C10	0.760600	0.024700	0.468400
C111	C11	0.661800	0.846400	0.289700
C121	C12	0.583400	0.299600	0.766100
C131	C13	0.285700	0.140100	0.208700
C141	C14	0.083400	0.799600	0.733900
C151	C15	0.287800	0.424000	0.704800
C161	C16	0.964700	0.394200	0.827400
C171	C17	0.744000	0.521500	0.259400
C181	C18	0.718300	0.646600	0.827600
C191	C19	0.077400	0.550800	0.965700
C201	C20	0.160800	0.677000	0.667300
C211	C21	0.035300	0.605800	0.172600
C221	C22	0.132000	0.400500	0.246800
C231	C23	0.158000	0.604000	0.925800
C241	C24	0.787800	0.924000	0.795200
C251	C25	0.970800	0.609700	0.712600
C261	C26	0.409100	0.429800	0.670300
C271	C27	0.825600	0.050000	0.766400
C281	C28	0.658000	0.104000	0.574200
C291	C29	0.214300	0.359900	0.708700
C301	C30	0.212200	0.076000	0.204800
C311	C31	0.887600	0.651100	0.249900
C321	C32	0.455000	0.222300	0.259300
C331	C33	0.455300	0.826100	0.207700
C341	C34	0.325600	0.550000	0.733600
C351	C35	0.847900	0.532200	0.219000
C361	C36	0.298800	0.027700	0.740000
C371	C37	0.090900	0.070200	0.170300
C381	C38	0.955300	0.326100	0.292300
C391	C39	0.416600	0.700400	0.233900
C401	C40	0.625900	0.013400	0.486500
C411	C41	0.951300	0.537400	0.952700
C421	C42	0.087700	0.282400	0.215100
C431	C43	0.985000	0.271200	0.256600
C441	C44	0.374100	0.986600	0.513500
C451	C45	0.916600	0.200400	0.266100
C461	C46	0.174400	0.950000	0.233600
C471	C47	0.548700	0.962600	0.452700
C481	C48	0.347900	0.032200	0.281000
C491	C49	0.387600	0.151100	0.250100
C501	C50	0.161800	0.346400	0.210300
C511	C51	0.125900	0.513400	0.013500
C521	C52	0.632000	0.900500	0.253200
C531	C53	0.044700	0.673900	0.707700
C541	C54	0.612400	0.848900	0.749900
C551	C55	0.912300	0.717600	0.784900
C561	C56	0.079800	0.403200	0.785700
C571	C57	0.338200	0.153600	0.710300
C581	C58	0.909100	0.929800	0.829700
C591	C59	0.029200	0.390300	0.287400
C601	C60	0.239400	0.975300	0.531600
C611	C61	0.112400	0.348900	0.750100
C621	C62	0.714300	0.859900	0.791300
C631	C63	0.420200	0.096800	0.285700
C641	C64	0.451300	0.037400	0.547300
C651	C65	0.545000	0.777700	0.740700
C661	C66	0.839200	0.323000	0.332700
C671	C67	0.756000	0.978500	0.759400
C681	C68	0.515000	0.228800	0.756600
C691	C69	0.701200	0.972300	0.260000
C701	C70	0.652100	0.967800	0.719000
C711	C71	0.785700	0.640100	0.291300
C721	C72	0.838200	0.653600	0.789700
C731	C73	0.920200	0.596800	0.214300
C741	C74	0.842000	0.396000	0.074200
C751	C75	0.464700	0.894200	0.672600
C761	C76	0.152100	0.467800	0.781000
C771	C77	0.244000	0.021500	0.240600
C781	C78	0.412300	0.217600	0.715100
C791	C79	0.342000	0.896000	0.425800
C801	C80	0.587700	0.782400	0.284900
C811	C81	0.201200	0.472300	0.240000
C821	C82	0.579800	0.903200	0.714300
C831	C83	0.544700	0.173900	0.792300
C841	C84	0.470800	0.109700	0.787400
C851	C85	0.339200	0.823000	0.167300
C861	C86	0.674400	0.450000	0.266400
C871	C87	0.535300	0.105800	0.327400
C881	C88	0.368000	0.099500	0.746800
C891	C89	0.529200	0.890300	0.212600
C901	C90	0.577400	0.050800	0.534300
C911	C91	0.955000	0.722300	0.240700
C921	C92	0.281700	0.353400	0.172400
C931	C93	0.712200	0.576000	0.295200
C941	C94	0.015000	0.728800	0.743400
C951	C95	0.256000	0.478500	0.740600
C961	C96	0.590900	0.570200	0.329700
C971	C97	0.798800	0.527700	0.760000
C981	C98	0.422600	0.949200	0.465700
C991	C99	0.868000	0.599500	0.753200
C1001	C100	0.922600	0.449200	0.034300
O11	O1	0.726500	0.396400	0.074240
O21	O2	0.501300	0.467640	0.694520
O31	O3	0.239000	0.803680	0.198680
O41	O4	0.210500	0.178100	0.620590
O51	O5	0.339100	0.572700	0.675920
O61	O6	0.789500	0.821900	0.379410
O71	O7	0.126400	0.815320	0.677790
O81	O8	0.538200	0.737030	0.787400
O91	O9	0.461800	0.262970	0.212600
O101	O10	0.805200	0.076100	0.434180
O111	O11	0.289500	0.321900	0.120590
O121	O12	0.217500	0.493730	0.182710
O131	O13	0.135800	0.614640	0.205310
O141	O14	0.001300	0.967640	0.805480
O151	O15	0.407500	0.659510	0.281340
O161	O16	0.373600	0.684680	0.177790
O171	O17	0.846300	0.342300	0.389900
O181	O18	0.138300	0.916280	0.283490
O191	O19	0.730000	0.006780	0.209370
O201	O20	0.270000	0.993220	0.790630
O211	O21	0.498700	0.532360	0.305480
O221	O22	0.626400	0.315320	0.822210
O231	O23	0.038200	0.237030	0.712600
O241	O24	0.194800	0.923900	0.565820
O251	O25	0.694800	0.423900	0.934180
O261	O26	0.581300	0.606000	0.379920
O271	O27	0.153700	0.657700	0.610100
O281	O28	0.997800	0.737250	0.184900
O291	O29	0.497800	0.237250	0.315100
O301	O30	0.027400	0.602000	0.113200
O311	O31	0.653700	0.157700	0.889900
O321	O32	0.364200	0.885360	0.705310
O331	O33	0.782500	0.506270	0.817290
O341	O34	0.273500	0.603600	0.925760
O351	O35	0.305200	0.576100	0.065820
O361	O36	0.998700	0.032360	0.194520
O371	O37	0.282500	0.006270	0.682710
O381	O38	0.739000	0.303680	0.301320
O391	O39	0.717500	0.993730	0.317290
O401	O40	0.961800	0.762970	0.287400
O411	O41	0.092500	0.840490	0.781340
O421	O42	0.625300	0.609850	0.801860
O431	O43	0.761000	0.196320	0.801320
O441	O44	0.418700	0.394000	0.620080
O451	O45	0.918700	0.894000	0.879920
O461	O46	0.635800	0.114640	0.294690
O471	O47	0.160900	0.927300	0.175920
O481	O48	0.907500	0.159510	0.218660
O491	O49	0.502200	0.762750	0.684900
O501	O50	0.873600	0.184680	0.322210
O511	O51	0.892300	0.355100	0.107200
O521	O52	0.226500	0.896400	0.425760
O531	O53	0.002200	0.262750	0.815100
O541	O54	0.710500	0.678100	0.879410
O551	O55	0.472600	0.898000	0.613200
O561	O56	0.230000	0.506780	0.290630
O571	O57	0.107700	0.644900	0.892800
O581	O58	0.638300	0.416280	0.216510
O591	O59	0.592500	0.340490	0.718660
O601	O60	0.321000	0.479900	0.012200
O611	O61	0.527400	0.102000	0.386800
O621	O62	0.374700	0.390150	0.198140
O631	O63	0.874700	0.890150	0.301860
O641	O64	0.179000	0.020100	0.512200
O651	O65	0.839100	0.072700	0.824080
O661	O66	0.864200	0.385360	0.794690
O671	O67	0.607700	0.144900	0.607200
O681	O68	0.773500	0.103600	0.574240
O691	O69	0.125300	0.109850	0.698140
O701	O70	0.392300	0.855100	0.392800
O711	O71	0.660900	0.427300	0.324080
O721	O72	0.972600	0.398000	0.886800
O731	O73	0.081300	0.106000	0.120080
O741	O74	0.861700	0.083720	0.716510
O751	O75	0.679000	0.520100	0.987800
O761	O76	0.261000	0.696320	0.698680
O771	O77	0.770000	0.493220	0.709370
O781	O78	0.346300	0.842300	0.110100
O791	O79	0.821000	0.979900	0.487800
O801	O80	0.361700	0.583720	0.783490
