data_VIWMAR_clean_PM
_symmetry_space_group_name_H-M	'P1'
_cell_length_a	10.927000
_cell_length_b	19.807000
_cell_length_c	20.391000
_cell_angle_alpha	90.000000
_cell_angle_beta	90.000000
_cell_angle_gamma	99.610000
_symmetry_Int_Tables_number 1

loop_
_symmetry_equiv_pos_as_xyz
'x,y,z'

loop_
_atom_site_label
_atom_site_type_symbol
_atom_site_fract_x
_atom_site_fract_y
_atom_site_fract_z
Nd11	Nd1	0.341110	0.581970	0.373020
Nd21	Nd2	0.037430	0.845520	0.372120
Nd31	Nd3	0.658890	0.418030	0.626980
Nd41	Nd4	0.537430	0.345520	0.127880
Nd51	Nd5	0.462570	0.654480	0.872120
Nd61	Nd6	0.841110	0.081970	0.126980
Nd71	Nd7	0.158890	0.918030	0.873020
Nd81	Nd8	0.962570	0.154480	0.627880
Cu11	Cu1	0.419860	0.668490	0.673910
Cu21	Cu2	0.580140	0.331510	0.326090
Cu31	Cu3	0.080140	0.831510	0.173910
Cu41	Cu4	0.295290	0.589790	0.173370
Cu51	Cu5	0.704710	0.410210	0.826630
Cu61	Cu6	0.204710	0.910210	0.673370
Cu71	Cu7	0.795290	0.089790	0.326630
Cu81	Cu8	0.919860	0.168490	0.826090
H11	H1	0.486900	0.073000	0.813000
H21	H2	0.768300	0.676200	0.317500
H31	H3	0.105600	0.247600	0.187600
H41	H4	0.013100	0.427000	0.313000
H51	H5	0.513100	0.927000	0.187000
H61	H6	0.869600	0.495700	0.196800
H71	H7	0.369600	0.995700	0.303200
H81	H8	0.917200	0.562900	0.921600
H91	H9	0.417200	0.062900	0.578400
H101	H10	0.268300	0.176200	0.182500
H111	H11	0.894400	0.752400	0.812400
H121	H12	0.231700	0.323800	0.682500
H131	H13	0.582800	0.937100	0.421600
H141	H14	0.394400	0.252400	0.687600
H151	H15	0.630400	0.004300	0.696800
H161	H16	0.986900	0.573000	0.687000
H171	H17	0.731700	0.823800	0.817500
H181	H18	0.605600	0.747600	0.312400
H191	H19	0.130400	0.504300	0.803200
H201	H20	0.082800	0.437100	0.078400
C11	C1	0.917800	0.200600	0.265100
C21	C2	0.909300	0.929500	0.831300
C31	C3	0.711400	0.576100	0.296400
C41	C4	0.365700	0.099200	0.747100
C51	C5	0.468700	0.109500	0.788200
C61	C6	0.245100	0.022400	0.240700
C71	C7	0.297700	0.027300	0.740600
C81	C8	0.261700	0.524500	0.031900
C91	C9	0.164600	0.346900	0.210900
C101	C10	0.211400	0.076100	0.203600
C111	C11	0.660000	0.104200	0.574900
C121	C12	0.031300	0.390500	0.288200
C131	C13	0.788600	0.923900	0.796400
C141	C14	0.965300	0.394500	0.827900
C151	C15	0.215100	0.146300	0.672100
C161	C16	0.078600	0.403300	0.786100
C171	C17	0.582200	0.299400	0.765100
C181	C18	0.160200	0.677300	0.667700
C191	C19	0.012800	0.728900	0.743900
C201	C20	0.512800	0.228900	0.756100
C211	C21	0.873400	0.486900	0.986400
C221	C22	0.465300	0.894500	0.672100
C231	C23	0.865700	0.599200	0.752900
C241	C24	0.702300	0.972700	0.259400
C251	C25	0.956700	0.721500	0.241500
C261	C26	0.325900	0.550500	0.732800
C271	C27	0.549500	0.962800	0.453000
C281	C28	0.651800	0.967500	0.719900
C291	C29	0.626600	0.013100	0.486400
C301	C30	0.044800	0.672600	0.706800
C311	C31	0.487200	0.771100	0.243900
C321	C32	0.088200	0.283000	0.214200
C331	C33	0.111100	0.349300	0.749600
C341	C34	0.411800	0.217000	0.714200
C351	C35	0.634300	0.900800	0.252900
C361	C36	0.754900	0.977600	0.759300
C371	C37	0.082200	0.799400	0.734900
C381	C38	0.335400	0.153100	0.710900
C391	C39	0.987200	0.271100	0.256100
C401	C40	0.043300	0.278500	0.758500
C411	C41	0.286700	0.140200	0.207900
C421	C42	0.531300	0.890500	0.211800
C431	C43	0.049500	0.462800	0.047000
C441	C44	0.955200	0.327400	0.293200
C451	C45	0.921400	0.596700	0.213900
C461	C46	0.534700	0.105500	0.327900
C471	C47	0.202300	0.472700	0.240600
C481	C48	0.450500	0.037200	0.547000
C491	C49	0.611100	0.849300	0.750400
C501	C50	0.339800	0.822700	0.167700
C511	C51	0.715100	0.646300	0.827900
C521	C52	0.797700	0.527300	0.759400
C531	C53	0.254900	0.477600	0.740700
C541	C54	0.421500	0.949500	0.465400
C551	C55	0.126600	0.513100	0.013600
C561	C56	0.784900	0.853700	0.327900
C571	C57	0.151800	0.467500	0.780100
C581	C58	0.213300	0.359800	0.707900
C591	C59	0.340000	0.895800	0.425100
C601	C60	0.543300	0.778500	0.741500
C611	C61	0.674100	0.449500	0.267200
C621	C62	0.660200	0.177300	0.832300
C631	C63	0.888900	0.650700	0.250400
C641	C64	0.421400	0.096700	0.286100
C651	C65	0.786700	0.640200	0.292100
C661	C66	0.911800	0.717000	0.785800
C671	C67	0.134300	0.400800	0.247100
C681	C68	0.950500	0.537200	0.953000
C691	C69	0.034700	0.605500	0.172100
C701	C70	0.664600	0.846900	0.289100
C711	C71	0.288600	0.423900	0.703600
C721	C72	0.174100	0.949500	0.232800
C731	C73	0.456700	0.221500	0.258500
C741	C74	0.738300	0.475500	0.968100
C751	C75	0.578600	0.903300	0.713900
C761	C76	0.373400	0.986900	0.513600
C771	C77	0.745100	0.522400	0.259300
C781	C78	0.825900	0.050500	0.767200
C791	C79	0.388900	0.150700	0.249600
C801	C80	0.238300	0.975500	0.531900
C811	C81	0.078500	0.550500	0.965400
C821	C82	0.348200	0.032500	0.280100
C831	C83	0.848200	0.532500	0.219900
C841	C84	0.968700	0.609500	0.711800
C851	C85	0.840000	0.395800	0.074900
C861	C86	0.284900	0.353700	0.172100
C871	C87	0.417800	0.700600	0.234900
C881	C88	0.544800	0.172600	0.793200
C891	C89	0.921500	0.449500	0.034600
C901	C90	0.713300	0.859800	0.792100
C911	C91	0.835400	0.653100	0.789100
C921	C92	0.160000	0.604200	0.925100
C931	C93	0.588200	0.783000	0.285800
C941	C94	0.578500	0.050500	0.534600
C951	C95	0.090700	0.070500	0.168700
C961	C96	0.455200	0.827400	0.206800
C971	C97	0.409300	0.429500	0.668700
C981	C98	0.761700	0.024500	0.468100
C991	C99	0.590700	0.570500	0.331300
C1001	C100	0.839800	0.322700	0.332300
O11	O1	0.240700	0.803800	0.197900
O21	O2	0.307900	0.576500	0.064800
O31	O3	0.908700	0.159200	0.218600
O41	O4	0.274100	0.603100	0.924900
O51	O5	0.759300	0.196200	0.802100
O61	O6	0.721400	0.994100	0.317600
O71	O7	0.840600	0.073100	0.824500
O81	O8	0.963300	0.763300	0.288100
O91	O9	0.340600	0.573100	0.675500
O101	O10	0.473200	0.897000	0.612500
O111	O11	0.740700	0.303800	0.302100
O121	O12	0.122100	0.110400	0.699000
O131	O13	0.624500	0.314500	0.822100
O141	O14	0.026800	0.603000	0.112500
O151	O15	0.375500	0.685500	0.177900
O161	O16	0.860200	0.084000	0.716800
O171	O17	0.730500	0.007900	0.208800
O181	O18	0.497000	0.532500	0.305800
O191	O19	0.377900	0.389600	0.199000
O201	O20	0.692100	0.423500	0.935200
O211	O21	0.278600	0.005900	0.682400
O221	O22	0.137600	0.614300	0.204800
O231	O23	0.159400	0.926900	0.175500
O241	O24	0.501000	0.763000	0.684900
O251	O25	0.778600	0.505900	0.817600
O261	O26	0.650700	0.157600	0.890600
O271	O27	0.997000	0.032500	0.194200
O281	O28	0.107700	0.645100	0.891700
O291	O29	0.875500	0.185500	0.322100
O301	O30	0.793400	0.822300	0.379800
O311	O31	0.503000	0.467500	0.694200
O321	O32	0.230500	0.507900	0.291200
O331	O33	0.177500	0.020900	0.512100
O341	O34	0.659400	0.426900	0.324500
O351	O35	0.639800	0.416000	0.216800
O361	O36	0.973200	0.397000	0.887500
O371	O37	0.269500	0.992100	0.791200
O381	O38	0.293400	0.322300	0.120200
O391	O39	0.124500	0.814500	0.677900
O401	O40	0.822500	0.979100	0.487900
O411	O41	0.036700	0.236700	0.711900
O421	O42	0.499000	0.237000	0.315100
O431	O43	0.322500	0.479100	0.012100
O441	O44	0.259300	0.696200	0.697900
O451	O45	0.420100	0.393800	0.619500
O461	O46	0.001000	0.263000	0.815100
O471	O47	0.091300	0.840800	0.781400
O481	O48	0.849300	0.342400	0.390600
O491	O49	0.139800	0.916000	0.283200
O501	O50	0.706600	0.677700	0.879800
O511	O51	0.622100	0.610400	0.801000
O521	O52	0.637600	0.114300	0.295200
O531	O53	0.591300	0.340800	0.718600
O541	O54	0.526800	0.103000	0.387500
O551	O55	0.408700	0.659200	0.281400
O561	O56	0.360200	0.584000	0.783200
O571	O57	0.774100	0.103100	0.575100
O581	O58	0.392300	0.854900	0.391700
O591	O59	0.206600	0.177700	0.620200
O601	O60	0.725900	0.396900	0.075100
O611	O61	0.807900	0.076500	0.435200
O621	O62	0.677500	0.520900	0.987900
O631	O63	0.221400	0.494100	0.182400
O641	O64	0.536700	0.736700	0.788100
O651	O65	0.003000	0.967500	0.805800
O661	O66	0.362400	0.885700	0.704800
O671	O67	0.607700	0.145100	0.608300
O681	O68	0.150700	0.657600	0.609400
O691	O69	0.769500	0.492100	0.708800
O701	O70	0.579900	0.606200	0.380500
O711	O71	0.920100	0.893800	0.880500
O721	O72	0.349300	0.842400	0.109400
O731	O73	0.999000	0.737000	0.184900
O741	O74	0.463300	0.263300	0.211900
O751	O75	0.079900	0.106200	0.119500
O761	O76	0.892300	0.354900	0.108300
O771	O77	0.192100	0.923500	0.564800
O781	O78	0.225900	0.896900	0.424900
O791	O79	0.877900	0.889600	0.301000
O801	O80	0.862400	0.385700	0.795200
