data_VIWMEV_clean_PM
_symmetry_space_group_name_H-M	'P1'
_cell_length_a	10.899000
_cell_length_b	19.785000
_cell_length_c	20.334000
_cell_angle_alpha	90.000000
_cell_angle_beta	90.000000
_cell_angle_gamma	99.480000
_symmetry_Int_Tables_number 1

loop_
_symmetry_equiv_pos_as_xyz
'x,y,z'

loop_
_atom_site_label
_atom_site_type_symbol
_atom_site_fract_x
_atom_site_fract_y
_atom_site_fract_z
Sm11	Sm1	0.540450	0.346130	0.129260
Sm21	Sm2	0.040450	0.846130	0.370740
Sm31	Sm3	0.842900	0.081900	0.127590
Sm41	Sm4	0.657100	0.418100	0.627590
Sm51	Sm5	0.459550	0.653870	0.870740
Sm61	Sm6	0.157100	0.918100	0.872410
Sm71	Sm7	0.959550	0.153870	0.629260
Sm81	Sm8	0.342900	0.581900	0.372410
Cu11	Cu1	0.700940	0.409760	0.826740
Cu21	Cu2	0.917800	0.168430	0.826690
Cu31	Cu3	0.799060	0.090240	0.326740
Cu41	Cu4	0.417800	0.668430	0.673310
Cu51	Cu5	0.299060	0.590240	0.173260
Cu61	Cu6	0.200940	0.909760	0.673260
Cu71	Cu7	0.582200	0.331570	0.326690
Cu81	Cu8	0.082200	0.831570	0.173310
H11	H1	0.389400	0.252500	0.687500
H21	H2	0.082500	0.436800	0.078600
H31	H3	0.229700	0.325000	0.681000
H41	H4	0.371700	0.996500	0.305200
H51	H5	0.014400	0.427200	0.312600
H61	H6	0.889400	0.752500	0.812500
H71	H7	0.128300	0.503500	0.805200
H81	H8	0.110600	0.247500	0.187500
H91	H9	0.514400	0.927200	0.187400
H101	H10	0.770300	0.675000	0.319000
H111	H11	0.871700	0.496500	0.194800
H121	H12	0.582500	0.936800	0.421400
H131	H13	0.985600	0.572800	0.687400
H141	H14	0.485600	0.072800	0.812600
H151	H15	0.628300	0.003500	0.694800
H161	H16	0.917500	0.563200	0.921400
H171	H17	0.610600	0.747500	0.312500
H181	H18	0.729700	0.825000	0.819000
H191	H19	0.417500	0.063200	0.578600
H201	H20	0.270300	0.175000	0.181000
C11	C1	0.156300	0.677600	0.666200
C21	C2	0.793600	0.525700	0.759800
C31	C3	0.627300	0.012000	0.486800
C41	C4	0.049300	0.462400	0.046800
C51	C5	0.009700	0.727600	0.744400
C61	C6	0.736700	0.476200	0.969200
C71	C7	0.407600	0.216700	0.713400
C81	C8	0.862800	0.598400	0.753400
C91	C9	0.843700	0.322400	0.333800
C101	C10	0.215000	0.076100	0.203700
C111	C11	0.534200	0.891100	0.212300
C121	C12	0.341200	0.896500	0.424000
C131	C13	0.960600	0.327000	0.291800
C141	C14	0.149300	0.467500	0.780700
C151	C15	0.890600	0.651200	0.251000
C161	C16	0.465800	0.108900	0.787700
C171	C17	0.109400	0.348800	0.749000
C181	C18	0.850700	0.532500	0.219300
C191	C19	0.408500	0.429400	0.669100
C201	C20	0.710700	0.645500	0.827200
C211	C21	0.372700	0.988000	0.513200
C221	C22	0.658800	0.103500	0.576000
C231	C23	0.990300	0.272400	0.255600
C241	C24	0.422600	0.096600	0.285100
C251	C25	0.656300	0.177600	0.833800
C261	C26	0.753200	0.978800	0.760400
C271	C27	0.785000	0.923900	0.796300
C281	C28	0.210700	0.145500	0.672800
C291	C29	0.711100	0.860500	0.792800
C301	C30	0.343700	0.822400	0.166200
C311	C31	0.746800	0.521200	0.260400
C321	C32	0.263300	0.523800	0.030800
C331	C33	0.637200	0.901600	0.253400
C341	C34	0.332500	0.152700	0.709700
C351	C35	0.667500	0.847300	0.290300
C361	C36	0.962700	0.393400	0.828500
C371	C37	0.591500	0.570600	0.330900
C381	C38	0.206400	0.474300	0.240200
C391	C39	0.832500	0.652700	0.790300
C401	C40	0.907600	0.716700	0.786600
C411	C41	0.920400	0.200500	0.264700
C421	C42	0.450700	0.037600	0.546800
C431	C43	0.706400	0.974300	0.259800
C441	C44	0.420400	0.700500	0.235300
C451	C45	0.293600	0.025700	0.740200
C461	C46	0.091500	0.070600	0.169100
C471	C47	0.577100	0.050700	0.535000
C481	C48	0.077100	0.550700	0.965000
C491	C49	0.789300	0.854500	0.327200
C501	C50	0.350700	0.032500	0.280700
C511	C51	0.176800	0.950000	0.233200
C521	C52	0.289300	0.354500	0.172800
C531	C53	0.950700	0.537600	0.953200
C541	C54	0.957900	0.722900	0.242100
C551	C55	0.841200	0.396500	0.076000
C561	C56	0.460600	0.827000	0.208200
C571	C57	0.872700	0.488000	0.986800
C581	C58	0.592400	0.783300	0.286600
C591	C59	0.537300	0.106600	0.328500
C601	C60	0.542100	0.777100	0.742100
C611	C61	0.127300	0.512000	0.013200
C621	C62	0.788900	0.639500	0.292800
C631	C63	0.236700	0.976200	0.530800
C641	C64	0.077400	0.403400	0.785100
C651	C65	0.137200	0.401600	0.246600
C661	C66	0.823200	0.050000	0.766800
C671	C67	0.167500	0.347300	0.209700
C681	C68	0.549300	0.962400	0.453200
C691	C69	0.462700	0.893400	0.671500
C701	C70	0.763300	0.023800	0.469200
C711	C71	0.609400	0.848800	0.751000
C721	C72	0.034200	0.391100	0.287700
C731	C73	0.715000	0.576100	0.296300
C741	C74	0.211100	0.360500	0.707200
C751	C75	0.422900	0.949300	0.465000
C761	C76	0.908500	0.929400	0.830900
C771	C77	0.362800	0.098400	0.746600
C781	C78	0.158800	0.603500	0.924000
C791	C79	0.092400	0.283300	0.213400
C801	C80	0.285000	0.423900	0.703700
C811	C81	0.922900	0.449300	0.035000
C821	C82	0.676800	0.450000	0.266800
C831	C83	0.246800	0.021200	0.239600
C841	C84	0.539400	0.173000	0.791800
C851	C85	0.288900	0.139500	0.207200
C861	C86	0.965800	0.608900	0.712300
C871	C87	0.490300	0.772400	0.244400
C881	C88	0.577400	0.903400	0.714900
C891	C89	0.323200	0.550000	0.733200
C901	C90	0.390600	0.151200	0.249000
C911	C91	0.042100	0.277100	0.757900
C921	C92	0.253200	0.478800	0.739600
C931	C93	0.079600	0.799500	0.735300
C941	C94	0.457900	0.222900	0.257900
C951	C95	0.649300	0.967500	0.719300
C961	C96	0.039400	0.673000	0.708200
C971	C97	0.509700	0.227600	0.755600
C981	C98	0.579600	0.299500	0.764700
C991	C99	0.922600	0.596600	0.214900
C1001	C100	0.037300	0.606600	0.171500
O11	O1	0.621100	0.314600	0.821800
O21	O2	0.257600	0.695800	0.697200
O31	O3	0.000900	0.737400	0.185300
O41	O4	0.107300	0.644700	0.891400
O51	O5	0.965200	0.763800	0.288400
O61	O6	0.192200	0.923800	0.564000
O71	O7	0.882500	0.889600	0.300400
O81	O8	0.001400	0.967300	0.805500
O91	O9	0.617500	0.610400	0.800400
O101	O10	0.999100	0.262600	0.814700
O111	O11	0.139300	0.614700	0.204000
O121	O12	0.860700	0.385300	0.796000
O131	O13	0.607300	0.144700	0.608600
O141	O14	0.774300	0.505400	0.817300
O151	O15	0.200700	0.176200	0.619800
O161	O16	0.807800	0.076200	0.436000
O171	O17	0.912100	0.160100	0.217600
O181	O18	0.225700	0.494600	0.182700
O191	O19	0.501400	0.467300	0.694500
O201	O20	0.972900	0.396800	0.888400
O211	O21	0.378900	0.685400	0.178200
O221	O22	0.725700	0.994600	0.317300
O231	O23	0.878900	0.185400	0.321800
O241	O24	0.700700	0.676200	0.880200
O251	O25	0.465200	0.263800	0.211600
O261	O26	0.643300	0.415800	0.216500
O271	O27	0.823300	0.978500	0.488400
O281	O28	0.176700	0.021500	0.511600
O291	O29	0.527100	0.103200	0.388400
O301	O30	0.226400	0.896400	0.424400
O311	O31	0.587900	0.339900	0.717600
O321	O32	0.143300	0.915800	0.283500
O331	O33	0.087900	0.839900	0.782400
O341	O34	0.079100	0.106500	0.119300
O351	O35	0.500900	0.237400	0.314700
O361	O36	0.920900	0.893500	0.880700
O371	O37	0.766800	0.491300	0.708500
O381	O38	0.299300	0.323800	0.119800
O391	O39	0.647600	0.158700	0.891500
O401	O40	0.856700	0.084200	0.716500
O411	O41	0.147600	0.658700	0.608500
O421	O42	0.360700	0.885300	0.704000
O431	O43	0.273600	0.603600	0.924400
O441	O44	0.742400	0.304200	0.302800
O451	O45	0.233200	0.508700	0.291500
O461	O46	0.579100	0.606500	0.380700
O471	O47	0.392700	0.855300	0.391400
O481	O48	0.660900	0.427600	0.325200
O491	O49	0.757600	0.195800	0.802800
O501	O50	0.498600	0.532700	0.305500
O511	O51	0.534800	0.736200	0.788400
O521	O52	0.692200	0.423800	0.936000
O531	O53	0.160900	0.927600	0.174800
O541	O54	0.726400	0.396400	0.075600
O551	O55	0.027100	0.603200	0.111600
O561	O56	0.352400	0.841300	0.108500
O571	O57	0.242400	0.804200	0.197200
O581	O58	0.339100	0.572400	0.674800
O591	O59	0.274300	0.005400	0.682700
O601	O60	0.420900	0.393500	0.619300
O611	O61	0.839100	0.072400	0.825200
O621	O62	0.034800	0.236200	0.711600
O631	O63	0.799300	0.823800	0.380200
O641	O64	0.676700	0.521500	0.988400
O651	O65	0.307800	0.576200	0.064000
O661	O66	0.117500	0.110400	0.699600
O671	O67	0.356700	0.584200	0.783500
O681	O68	0.733200	0.008700	0.208500
O691	O69	0.639300	0.114700	0.296000
O701	O70	0.121100	0.814600	0.678200
O711	O71	0.773600	0.103600	0.575600
O721	O72	0.472900	0.896800	0.611600
O731	O73	0.998600	0.032700	0.194500
O741	O74	0.382500	0.389600	0.199600
O751	O75	0.499100	0.762600	0.685300
O761	O76	0.323300	0.478500	0.011600
O771	O77	0.266800	0.991300	0.791500
O781	O78	0.892700	0.355300	0.108600
O791	O79	0.412100	0.660100	0.282400
O801	O80	0.852400	0.341300	0.391500
