data_VIWZOR_clean_PM
_symmetry_space_group_name_H-M	'P1'
_cell_length_a	10.251100
_cell_length_b	13.847800
_cell_length_c	16.002200
_cell_angle_alpha	90.000000
_cell_angle_beta	95.643000
_cell_angle_gamma	90.000000
_symmetry_Int_Tables_number 1

loop_
_symmetry_equiv_pos_as_xyz
'x,y,z'

loop_
_atom_site_label
_atom_site_type_symbol
_atom_site_fract_x
_atom_site_fract_y
_atom_site_fract_z
Zn11	Zn1	0.876160	0.032140	0.045270
Zn21	Zn2	0.019210	0.197620	0.931180
C11	C1	0.616830	0.176290	0.853860
C21	C2	0.614980	0.247510	0.792540
H11	H1	0.695000	0.273200	0.776900
C31	C3	0.496080	0.281100	0.754140
C41	C4	0.379040	0.243460	0.777050
H21	H2	0.297800	0.266400	0.750800
C51	C5	0.380890	0.172240	0.838370
C61	C6	0.499790	0.138650	0.876770
H31	H3	0.501100	0.090000	0.918700
C71	C7	0.744940	0.144240	0.899270
C81	C8	0.498630	0.356190	0.685080
C91	C9	0.255720	0.134010	0.866890
O11	O1	0.847860	0.172110	0.869480
O21	O2	0.739410	0.092590	0.963970
O31	O3	0.607160	0.384520	0.667200
O41	O4	0.388070	0.385050	0.650000
O51	O5	0.261840	0.053670	0.903900
O61	O6	0.154560	0.185390	0.852470
O71	O7	0.049760	0.087070	0.005510
I11	I1	0.017930	0.353760	0.010780
Zn31	Zn3	0.623840	0.532140	0.454730
Zn41	Zn4	0.480790	0.697620	0.568820
C101	C10	0.883170	0.676290	0.646140
C111	C11	0.885020	0.747510	0.707460
H41	H4	0.805000	0.773200	0.723100
C121	C12	0.003920	0.781100	0.745860
C131	C13	0.120960	0.743460	0.722950
H51	H5	0.202200	0.766400	0.749200
C141	C14	0.119110	0.672240	0.661630
C151	C15	0.000210	0.638650	0.623230
H61	H6	0.998900	0.590000	0.581300
C161	C16	0.755060	0.644240	0.600730
C171	C17	0.001370	0.856190	0.814920
C181	C18	0.244280	0.634010	0.633110
O81	O8	0.652140	0.672110	0.630520
O91	O9	0.760590	0.592590	0.536030
O101	O10	0.892840	0.884520	0.832800
O111	O11	0.111930	0.885050	0.850000
O121	O12	0.238160	0.553670	0.596100
O131	O13	0.345440	0.685390	0.647530
O141	O14	0.450240	0.587070	0.494490
I21	I2	0.482070	0.853760	0.489220
Zn51	Zn5	0.123840	0.967860	0.954730
Zn61	Zn6	0.980790	0.802380	0.068820
C191	C19	0.383170	0.823710	0.146140
C201	C20	0.385020	0.752490	0.207460
H71	H7	0.305000	0.726800	0.223100
C211	C21	0.503920	0.718900	0.245860
C221	C22	0.620960	0.756540	0.222950
H81	H8	0.702200	0.733600	0.249200
C231	C23	0.619110	0.827760	0.161630
C241	C24	0.500210	0.861350	0.123230
H91	H9	0.498900	0.910000	0.081300
C251	C25	0.255060	0.855760	0.100730
C261	C26	0.501370	0.643810	0.314920
C271	C27	0.744280	0.865990	0.133110
O151	O15	0.152140	0.827890	0.130520
O161	O16	0.260590	0.907410	0.036030
O171	O17	0.392840	0.615480	0.332800
O181	O18	0.611930	0.614950	0.350000
O191	O19	0.738160	0.946330	0.096100
O201	O20	0.845440	0.814610	0.147530
O211	O21	0.950240	0.912930	0.994490
I31	I3	0.982070	0.646240	0.989220
Zn71	Zn7	0.376160	0.467860	0.545270
Zn81	Zn8	0.519210	0.302380	0.431180
C281	C28	0.116830	0.323710	0.353860
C291	C29	0.114980	0.252490	0.292540
H101	H10	0.195000	0.226800	0.276900
C301	C30	0.996080	0.218900	0.254140
C311	C31	0.879040	0.256540	0.277050
H111	H11	0.797800	0.233600	0.250800
C321	C32	0.880890	0.327760	0.338370
C331	C33	0.999790	0.361350	0.376770
H121	H12	0.001100	0.410000	0.418700
C341	C34	0.244940	0.355760	0.399270
C351	C35	0.998630	0.143810	0.185080
C361	C36	0.755720	0.365990	0.366890
O221	O22	0.347860	0.327890	0.369480
O231	O23	0.239410	0.407410	0.463970
O241	O24	0.107160	0.115480	0.167200
O251	O25	0.888070	0.114950	0.150000
O261	O26	0.761840	0.446330	0.403900
O271	O27	0.654560	0.314610	0.352470
O281	O28	0.549760	0.412930	0.505510
I41	I4	0.517930	0.146240	0.510780
