data_VIYMAT_clean_PM
_symmetry_space_group_name_H-M	'P1'
_cell_length_a	9.803500
_cell_length_b	10.942300
_cell_length_c	19.428900
_cell_angle_alpha	85.596000
_cell_angle_beta	75.686000
_cell_angle_gamma	63.622000
_symmetry_Int_Tables_number 1

loop_
_symmetry_equiv_pos_as_xyz
'x,y,z'

loop_
_atom_site_label
_atom_site_type_symbol
_atom_site_fract_x
_atom_site_fract_y
_atom_site_fract_z
Nd11	Nd1	0.710040	0.027290	0.500410
Nd21	Nd2	0.249490	0.480300	0.990820
S11	S1	0.299000	0.526300	0.469730
S21	S2	0.337700	0.222800	0.761530
S31	S3	0.704400	0.983600	0.967940
O11	O1	0.533000	0.113200	0.619200
O21	O2	0.492300	0.279200	0.988500
O31	O3	0.234200	0.341200	0.903900
O41	O4	0.314500	0.169500	0.448300
O51	O5	0.980800	0.884000	0.436400
O61	O6	0.198800	0.815100	0.475900
O71	O7	0.088800	0.642000	0.919300
O81	O8	0.482100	0.230600	0.480000
O91	O9	0.986500	0.371000	0.926900
O101	O10	0.836800	0.681600	0.942200
C11	C1	0.101900	0.793300	0.453300
C21	C2	0.944300	0.719400	0.932500
C31	C3	0.057900	0.592800	0.418800
H11	H1	0.967800	0.643900	0.402500
C41	C4	0.155500	0.268800	0.817200
C51	C5	0.897100	0.868500	0.936500
C61	C6	0.402100	0.112000	0.626000
C71	C7	0.631000	0.258100	0.984100
C81	C8	0.129000	0.448800	0.419600
H21	H2	0.091500	0.394100	0.404000
C91	C9	0.260300	0.399300	0.446300
C101	C10	0.136300	0.649100	0.444600
C111	C11	0.360800	0.254600	0.459400
C121	C12	0.286900	0.167200	0.696300
C131	C13	0.135300	0.183000	0.717100
H31	H3	0.088000	0.157100	0.688800
C141	C14	0.754500	0.117300	0.961700
C151	C15	0.058900	0.242800	0.786300
H41	H4	0.955500	0.262200	0.808300
C161	C16	0.121800	0.332400	0.888200
O111	O11	0.672200	0.345800	0.996700
C171	C17	0.993700	0.932000	0.920900
H51	H5	0.101500	0.886100	0.902600
C181	C18	0.912600	0.074400	0.935400
H61	H6	0.960700	0.132400	0.928000
O121	O12	0.362500	0.066200	0.582400
Nd31	Nd3	0.289960	0.972710	0.499590
Nd41	Nd4	0.750510	0.519700	0.009180
S41	S4	0.701000	0.473700	0.530270
S51	S5	0.662300	0.777200	0.238470
S61	S6	0.295600	0.016400	0.032060
O131	O13	0.467000	0.886800	0.380800
O141	O14	0.507700	0.720800	0.011500
O151	O15	0.765800	0.658800	0.096100
O161	O16	0.685500	0.830500	0.551700
O171	O17	0.019200	0.116000	0.563600
O181	O18	0.801200	0.184900	0.524100
O191	O19	0.911200	0.358000	0.080700
O201	O20	0.517900	0.769400	0.520000
O211	O21	0.013500	0.629000	0.073100
O221	O22	0.163200	0.318400	0.057800
C191	C19	0.898100	0.206700	0.546700
C201	C20	0.055700	0.280600	0.067500
C211	C21	0.942100	0.407200	0.581200
H71	H7	0.032200	0.356100	0.597500
C221	C22	0.844500	0.731200	0.182800
C231	C23	0.102900	0.131500	0.063500
C241	C24	0.597900	0.888000	0.374000
C251	C25	0.369000	0.741900	0.015900
C261	C26	0.871000	0.551200	0.580400
H81	H8	0.908500	0.605900	0.596000
C271	C27	0.739700	0.600700	0.553700
C281	C28	0.863700	0.350900	0.555400
C291	C29	0.639200	0.745400	0.540600
C301	C30	0.713100	0.832800	0.303700
C311	C31	0.864700	0.817000	0.282900
H91	H9	0.912000	0.842900	0.311200
C321	C32	0.245500	0.882700	0.038300
C331	C33	0.941100	0.757200	0.213700
H101	H10	0.044500	0.737800	0.191700
C341	C34	0.878200	0.667600	0.111800
O231	O23	0.327800	0.654200	0.003300
C351	C35	0.006300	0.068000	0.079100
H111	H11	0.898500	0.113900	0.097400
C361	C36	0.087400	0.925600	0.064600
H121	H12	0.039300	0.867600	0.072000
O241	O24	0.637500	0.933800	0.417600
