data_VIYZIO01_clean_PM
_symmetry_space_group_name_H-M	'P1'
_cell_length_a	10.239000
_cell_length_b	12.191000
_cell_length_c	13.910000
_cell_angle_alpha	94.600000
_cell_angle_beta	93.750000
_cell_angle_gamma	99.870000
_symmetry_Int_Tables_number 1

loop_
_symmetry_equiv_pos_as_xyz
'x,y,z'

loop_
_atom_site_label
_atom_site_type_symbol
_atom_site_fract_x
_atom_site_fract_y
_atom_site_fract_z
Zn11	Zn1	0.277970	0.980930	0.771770
Zn21	Zn2	0.238900	0.803780	0.539520
H11	H1	0.229600	0.663400	0.774500
H21	H2	0.339000	0.257700	0.597900
H31	H3	0.136600	0.471100	0.988600
H41	H4	0.047800	0.822300	0.371200
H51	H5	0.142400	0.037800	0.949900
H61	H6	0.633600	0.931600	0.528700
H71	H7	0.520700	0.765700	0.808300
H81	H8	0.416700	0.858800	0.913700
H91	H9	0.361700	0.429800	0.536000
H101	H10	0.055100	0.863200	0.214300
H111	H11	0.118800	0.984500	0.102800
H121	H12	0.406400	0.806800	0.067400
H131	H13	0.973000	0.769700	0.802600
H141	H14	0.438700	0.834500	0.229600
H151	H15	0.859700	0.695000	0.924800
H161	H16	0.423300	0.797600	0.387100
H171	H17	0.162200	0.644300	0.927900
H181	H18	0.180700	0.318300	0.900800
H191	H19	0.632100	0.690900	0.925500
H201	H20	0.857000	0.921300	0.520500
C11	C1	0.884900	0.864000	0.649300
C21	C2	0.314900	0.317600	0.634000
C31	C3	0.181200	0.957900	0.065800
C41	C4	0.814900	0.725100	0.875900
C51	C5	0.131700	0.851100	0.248400
C61	C6	0.678800	0.821000	0.731600
C71	C7	0.613200	0.871100	0.657000
C81	C8	0.234300	0.394200	0.779200
C91	C9	0.349700	0.852700	0.044700
C101	C10	0.328500	0.421600	0.596100
C111	C11	0.303500	0.618100	0.597400
C121	C12	0.293100	0.511100	0.647000
C131	C13	0.248000	0.500200	0.740700
C141	C14	0.612000	0.768800	0.806900
C151	C15	0.255600	0.186900	0.755400
C161	C16	0.358600	0.834600	0.257600
C171	C17	0.165000	0.478200	0.926900
C181	C18	0.882500	0.770900	0.803500
C191	C19	0.179700	0.582600	0.890400
C201	C20	0.267200	0.301000	0.722600
C211	C21	0.128000	0.826600	0.342800
C221	C22	0.473300	0.894000	0.662100
C231	C23	0.032900	0.875100	0.645100
C241	C24	0.348400	0.811700	0.352000
C251	C25	0.220200	0.593800	0.798800
C261	C26	0.259200	0.889100	0.103900
C271	C27	0.818000	0.820000	0.729600
C281	C28	0.194400	0.988500	0.972800
C291	C29	0.355400	0.884600	0.952200
C301	C30	0.191100	0.386700	0.874400
C311	C31	0.814600	0.899900	0.574900
C321	C32	0.678100	0.723500	0.876600
C331	C33	0.679000	0.904900	0.579300
C341	C34	0.249600	0.857900	0.203900
N11	N1	0.277800	0.950700	0.914600
N21	N2	0.234900	0.808700	0.396000
O11	O1	0.176600	0.151800	0.815900
O21	O2	0.076600	0.866600	0.562800
O31	O3	0.394500	0.646300	0.547600
O41	O4	0.104600	0.895800	0.723100
O51	O5	0.207300	0.672300	0.607100
O61	O6	0.430500	0.906600	0.744100
O71	O7	0.324600	0.121400	0.716100
O81	O8	0.408700	0.902000	0.583900
Zn31	Zn3	0.722030	0.019070	0.228230
Zn41	Zn4	0.761100	0.196220	0.460480
H211	H21	0.881200	0.015500	0.897200
H221	H22	0.952200	0.177700	0.628800
H231	H23	0.770400	0.336600	0.225500
H241	H24	0.661000	0.742300	0.402100
H251	H25	0.140300	0.305000	0.075200
H261	H26	0.576700	0.202400	0.612900
H271	H27	0.944900	0.136800	0.785700
H281	H28	0.143000	0.078700	0.479500
H291	H29	0.366400	0.068400	0.471300
H301	H30	0.638300	0.570200	0.464000
H311	H31	0.561300	0.165500	0.770400
H321	H32	0.479300	0.234300	0.191700
H331	H33	0.583300	0.141200	0.086300
H341	H34	0.863400	0.528900	0.011400
H351	H35	0.837800	0.355700	0.072100
H361	H36	0.819300	0.681700	0.099200
H371	H37	0.593600	0.193200	0.932600
H381	H38	0.027000	0.230300	0.197400
H391	H39	0.367900	0.309100	0.074500
H401	H40	0.857600	0.962200	0.050100
C351	C35	0.388000	0.231200	0.193100
C361	C36	0.185400	0.100100	0.425100
C371	C37	0.115100	0.136000	0.350700
C381	C38	0.321900	0.276500	0.123400
C391	C39	0.386800	0.128900	0.343000
C401	C40	0.967100	0.124900	0.354900
C411	C41	0.765700	0.605800	0.220800
C421	C42	0.818800	0.042100	0.934200
C431	C43	0.696500	0.381900	0.402600
C441	C44	0.671500	0.578400	0.403900
C451	C45	0.117500	0.229100	0.196500
C461	C46	0.752000	0.499800	0.259300
C471	C47	0.706900	0.488900	0.353000
C481	C48	0.872000	0.173400	0.657200
C491	C49	0.644600	0.115400	0.047800
C501	C50	0.835000	0.521800	0.073100
C511	C51	0.651600	0.188300	0.648000
C521	C52	0.650300	0.147300	0.955300
C531	C53	0.868300	0.148900	0.751600
C541	C54	0.750400	0.142100	0.796100
C551	C55	0.779800	0.406200	0.201200
C561	C56	0.740800	0.110900	0.896100
C571	C57	0.526700	0.106000	0.337900
C581	C58	0.744400	0.813100	0.244600
C591	C59	0.182000	0.180000	0.270400
C601	C60	0.808900	0.613300	0.125600
C611	C61	0.321200	0.179000	0.268400
C621	C62	0.685100	0.682400	0.366000
C631	C63	0.321000	0.095100	0.420700
C641	C64	0.185100	0.274900	0.124100
C651	C65	0.820300	0.417400	0.109600
C661	C66	0.732800	0.699000	0.277400
C671	C67	0.641400	0.165400	0.742400
C681	C68	0.805600	0.011500	0.027200
N31	N3	0.722200	0.049300	0.085400
N41	N4	0.765100	0.191300	0.604000
O91	O9	0.605500	0.353700	0.452400
O101	O10	0.675400	0.878600	0.283900
O111	O11	0.895400	0.104200	0.276900
O121	O12	0.923400	0.133400	0.437200
O131	O13	0.591300	0.098000	0.416100
O141	O14	0.569500	0.093400	0.255900
O151	O15	0.823400	0.848200	0.184100
O161	O16	0.792700	0.327700	0.392900
