data_VIZQEC_clean_PM
_symmetry_space_group_name_H-M	'P1'
_cell_length_a	16.654000
_cell_length_b	17.198000
_cell_length_c	20.426000
_cell_angle_alpha	90.000000
_cell_angle_beta	90.000000
_cell_angle_gamma	99.830300
_symmetry_Int_Tables_number 1

loop_
_symmetry_equiv_pos_as_xyz
'x,y,z'

loop_
_atom_site_label
_atom_site_type_symbol
_atom_site_fract_x
_atom_site_fract_y
_atom_site_fract_z
Co11	Co1	0.537860	0.258830	0.335850
Co21	Co2	0.640700	0.446930	0.376340
Co31	Co3	0.410700	0.065010	0.357350
Co41	Co4	0.962140	0.241170	0.835850
Co51	Co5	0.859300	0.053070	0.876340
Co61	Co6	0.089300	0.434990	0.857350
Co71	Co7	0.462140	0.741170	0.664150
Co81	Co8	0.359300	0.553070	0.623660
Co91	Co9	0.589300	0.934990	0.642650
Co101	Co10	0.037860	0.758830	0.164150
Co111	Co11	0.140700	0.946930	0.123660
Co121	Co12	0.910700	0.565010	0.142650
H11	H1	0.512400	0.221600	0.496300
H21	H2	0.471600	0.165600	0.596900
H31	H3	0.464600	0.381400	0.669600
H41	H4	0.501600	0.436300	0.567800
H51	H5	0.594400	0.327500	0.757700
H61	H6	0.722600	0.305600	0.788300
H71	H7	0.648800	0.072600	0.776700
H81	H8	0.520600	0.094100	0.742600
H91	H9	0.518300	0.240000	0.149800
H101	H10	0.514400	0.247900	0.039000
H111	H11	0.393300	0.028200	0.031200
H121	H12	0.392300	0.022400	0.144100
H131	H13	0.410000	0.301100	0.939700
H141	H14	0.293200	0.353100	0.922000
H151	H15	0.166200	0.138700	0.890900
H161	H16	0.281200	0.085100	0.907700
H171	H17	0.533200	0.565600	0.221800
H181	H18	0.482000	0.612400	0.127100
H191	H19	0.387800	0.391100	0.073900
H201	H20	0.437100	0.344000	0.167800
H211	H21	0.328600	0.670800	0.063000
H221	H22	0.197000	0.689800	0.090700
H231	H23	0.109200	0.465300	0.043400
H241	H24	0.238300	0.446600	0.011700
H251	H25	0.987600	0.278400	0.996300
H261	H26	0.028400	0.334400	0.096900
H271	H27	0.035400	0.118600	0.169600
H281	H28	0.998400	0.063700	0.067800
H291	H29	0.905600	0.172500	0.257700
H301	H30	0.777400	0.194400	0.288300
H311	H31	0.851200	0.427400	0.276700
H321	H32	0.979400	0.405900	0.242600
H331	H33	0.981700	0.260000	0.649800
H341	H34	0.985600	0.252100	0.539000
H351	H35	0.106700	0.471800	0.531200
H361	H36	0.107700	0.477600	0.644100
H371	H37	0.090000	0.198900	0.439700
H381	H38	0.206800	0.146900	0.422000
H391	H39	0.333800	0.361300	0.390900
H401	H40	0.218800	0.414900	0.407700
H411	H41	0.966800	0.934400	0.721800
H421	H42	0.018000	0.887600	0.627100
H431	H43	0.112200	0.108900	0.573900
H441	H44	0.062900	0.156000	0.667800
H451	H45	0.171400	0.829200	0.563000
H461	H46	0.303000	0.810200	0.590700
H471	H47	0.390800	0.034700	0.543400
H481	H48	0.261700	0.053400	0.511700
H491	H49	0.487600	0.778400	0.503700
H501	H50	0.528400	0.834400	0.403100
H511	H51	0.535400	0.618600	0.330400
H521	H52	0.498400	0.563700	0.432200
H531	H53	0.405600	0.672500	0.242300
H541	H54	0.277400	0.694400	0.211700
H551	H55	0.351200	0.927400	0.223300
H561	H56	0.479400	0.905900	0.257400
H571	H57	0.481700	0.760000	0.850200
H581	H58	0.485600	0.752100	0.961000
H591	H59	0.606700	0.971800	0.968800
H601	H60	0.607700	0.977600	0.855900
H611	H61	0.590000	0.698900	0.060300
H621	H62	0.706800	0.646900	0.078000
H631	H63	0.833800	0.861300	0.109100
H641	H64	0.718800	0.914900	0.092300
H651	H65	0.466800	0.434400	0.778200
H661	H66	0.518000	0.387600	0.872900
H671	H67	0.612200	0.608900	0.926100
H681	H68	0.562900	0.656000	0.832200
H691	H69	0.671400	0.329200	0.937000
H701	H70	0.803000	0.310200	0.909300
H711	H71	0.890800	0.534700	0.956600
H721	H72	0.761700	0.553400	0.988300
H731	H73	0.012400	0.721600	0.003700
H741	H74	0.971600	0.665600	0.903100
H751	H75	0.964600	0.881400	0.830400
H761	H76	0.001600	0.936300	0.932200
H771	H77	0.094400	0.827500	0.742300
H781	H78	0.222600	0.805600	0.711700
H791	H79	0.148800	0.572600	0.723300
H801	H80	0.020600	0.594100	0.757400
H811	H81	0.018300	0.740000	0.350200
H821	H82	0.014400	0.747900	0.461000
H831	H83	0.893300	0.528200	0.468800
H841	H84	0.892300	0.522400	0.355900
H851	H85	0.910000	0.801100	0.560300
H861	H86	0.793200	0.853100	0.578000
H871	H87	0.666200	0.638700	0.609100
H881	H88	0.781200	0.585100	0.592300
H891	H89	0.033200	0.065600	0.278200
H901	H90	0.982000	0.112400	0.372900
H911	H91	0.887800	0.891100	0.426100
H921	H92	0.937100	0.844000	0.332200
H931	H93	0.828600	0.170800	0.437000
H941	H94	0.697000	0.189800	0.409300
H951	H95	0.609200	0.965300	0.456600
H961	H96	0.738300	0.946600	0.488300
C11	C1	0.548600	0.372000	0.461200
C21	C2	0.513700	0.334500	0.522200
C31	C3	0.503300	0.253800	0.531200
C41	C4	0.479600	0.220000	0.591600
C51	C5	0.468300	0.268500	0.643500
C61	C6	0.474900	0.349400	0.634900
C71	C7	0.497400	0.382200	0.574000
C81	C8	0.545000	0.211900	0.749200
C91	C9	0.605200	0.276400	0.761500
C101	C10	0.681700	0.262800	0.779800
C111	C11	0.698800	0.187700	0.785900
C121	C12	0.638100	0.123700	0.772600
C131	C13	0.561000	0.136700	0.753000
C141	C14	0.782700	0.172900	0.805800
C151	C15	0.462300	0.128200	0.232300
C161	C16	0.458400	0.129400	0.158700
C171	C17	0.492700	0.196700	0.125900
C181	C18	0.490300	0.201700	0.059800
C191	C19	0.452300	0.138600	0.023300
C201	C20	0.417800	0.071700	0.055300
C211	C21	0.418800	0.067500	0.123000
C221	C22	0.358300	0.186400	0.925600
C231	C23	0.361300	0.268000	0.929800
C241	C24	0.291100	0.298800	0.919000
C251	C25	0.218800	0.251700	0.904200
C261	C26	0.215300	0.171300	0.900500
C271	C27	0.284100	0.139500	0.910700
C281	C28	0.143500	0.288100	0.887900
C291	C29	0.524900	0.418400	0.265600
C301	C30	0.490200	0.449400	0.205300
C311	C31	0.504000	0.530600	0.192300
C321	C32	0.473800	0.558500	0.135500
C331	C33	0.431300	0.505900	0.090800
C341	C34	0.417200	0.425900	0.103500
C351	C35	0.446400	0.398000	0.159700
C361	C36	0.295900	0.556100	0.036500
C371	C37	0.284700	0.629700	0.059300
C381	C38	0.206100	0.640700	0.076400
C391	C39	0.141800	0.578600	0.072100
C401	C40	0.153300	0.506200	0.047500
C411	C41	0.230300	0.494700	0.029000
C421	C42	0.058300	0.589200	0.095000
C431	C43	0.951400	0.128000	0.961200
C441	C44	0.986300	0.165500	0.022200
C451	C45	0.996700	0.246200	0.031200
C461	C46	0.020400	0.280000	0.091600
C471	C47	0.031700	0.231500	0.143500
C481	C48	0.025100	0.150600	0.134900
C491	C49	0.002600	0.117800	0.074000
C501	C50	0.955000	0.288100	0.249200
C511	C51	0.894800	0.223600	0.261500
C521	C52	0.818300	0.237200	0.279800
C531	C53	0.801200	0.312300	0.285900
C541	C54	0.861900	0.376300	0.272600
C551	C55	0.939000	0.363300	0.253000
C561	C56	0.717300	0.327100	0.305800
C571	C57	0.037700	0.371800	0.732300
C581	C58	0.041600	0.370600	0.658700
C591	C59	0.007300	0.303300	0.625900
C601	C60	0.009700	0.298300	0.559800
C611	C61	0.047700	0.361400	0.523300
C621	C62	0.082200	0.428300	0.555300
C631	C63	0.081200	0.432500	0.623000
C641	C64	0.141700	0.313600	0.425600
C651	C65	0.138700	0.232000	0.429800
C661	C66	0.208900	0.201200	0.419000
C671	C67	0.281200	0.248300	0.404200
C681	C68	0.284700	0.328700	0.400500
C691	C69	0.215900	0.360500	0.410700
C701	C70	0.356500	0.211900	0.387900
C711	C71	0.975100	0.081600	0.765600
C721	C72	0.009800	0.050600	0.705300
C731	C73	0.996000	0.969400	0.692300
C741	C74	0.026200	0.941500	0.635500
C751	C75	0.068700	0.994100	0.590800
C761	C76	0.082800	0.074100	0.603500
C771	C77	0.053600	0.102000	0.659700
C781	C78	0.204100	0.943900	0.536500
C791	C79	0.215300	0.870300	0.559300
C801	C80	0.293900	0.859300	0.576400
C811	C81	0.358200	0.921400	0.572100
C821	C82	0.346700	0.993800	0.547500
C831	C83	0.269700	0.005300	0.529000
C841	C84	0.441700	0.910800	0.595000
C851	C85	0.451400	0.628000	0.538800
C861	C86	0.486300	0.665500	0.477800
C871	C87	0.496700	0.746200	0.468800
C881	C88	0.520400	0.780000	0.408400
C891	C89	0.531700	0.731500	0.356500
C901	C90	0.525100	0.650600	0.365100
C911	C91	0.502600	0.617800	0.426000
C921	C92	0.455000	0.788100	0.250800
C931	C93	0.394800	0.723600	0.238500
C941	C94	0.318300	0.737200	0.220200
C951	C95	0.301200	0.812300	0.214100
C961	C96	0.361900	0.876300	0.227400
C971	C97	0.439000	0.863300	0.247000
C981	C98	0.217300	0.827100	0.194200
C991	C99	0.537700	0.871800	0.767700
C1001	C100	0.541600	0.870600	0.841300
C1011	C101	0.507300	0.803300	0.874100
C1021	C102	0.509700	0.798300	0.940200
C1031	C103	0.547700	0.861400	0.976700
C1041	C104	0.582200	0.928300	0.944700
C1051	C105	0.581200	0.932500	0.877000
C1061	C106	0.641700	0.813600	0.074400
C1071	C107	0.638700	0.732000	0.070200
C1081	C108	0.708900	0.701200	0.081000
C1091	C109	0.781200	0.748300	0.095800
C1101	C110	0.784700	0.828700	0.099500
C1111	C111	0.715900	0.860500	0.089300
C1121	C112	0.856500	0.711900	0.112100
C1131	C113	0.475100	0.581600	0.734400
C1141	C114	0.509800	0.550600	0.794700
C1151	C115	0.496000	0.469400	0.807700
C1161	C116	0.526200	0.441500	0.864500
C1171	C117	0.568700	0.494100	0.909200
C1181	C118	0.582800	0.574100	0.896500
C1191	C119	0.553600	0.602000	0.840300
C1201	C120	0.704100	0.443900	0.963500
C1211	C121	0.715300	0.370300	0.940700
C1221	C122	0.793900	0.359300	0.923600
C1231	C123	0.858200	0.421400	0.927900
C1241	C124	0.846700	0.493800	0.952500
C1251	C125	0.769700	0.505300	0.971000
C1261	C126	0.941700	0.410800	0.905000
C1271	C127	0.048600	0.872000	0.038800
C1281	C128	0.013700	0.834500	0.977800
C1291	C129	0.003300	0.753800	0.968800
C1301	C130	0.979600	0.720000	0.908400
C1311	C131	0.968300	0.768500	0.856500
C1321	C132	0.974900	0.849400	0.865100
C1331	C133	0.997400	0.882200	0.926000
C1341	C134	0.045000	0.711900	0.750800
C1351	C135	0.105200	0.776400	0.738500
C1361	C136	0.181700	0.762800	0.720200
C1371	C137	0.198800	0.687700	0.714100
C1381	C138	0.138100	0.623700	0.727400
C1391	C139	0.061000	0.636700	0.747000
C1401	C140	0.282700	0.672900	0.694200
C1411	C141	0.962300	0.628200	0.267700
C1421	C142	0.958400	0.629400	0.341300
C1431	C143	0.992700	0.696700	0.374100
C1441	C144	0.990300	0.701700	0.440200
C1451	C145	0.952300	0.638600	0.476700
C1461	C146	0.917800	0.571700	0.444700
C1471	C147	0.918800	0.567500	0.377000
C1481	C148	0.858300	0.686400	0.574400
C1491	C149	0.861300	0.768000	0.570200
C1501	C150	0.791100	0.798800	0.581000
C1511	C151	0.718800	0.751700	0.595800
C1521	C152	0.715300	0.671300	0.599500
C1531	C153	0.784100	0.639500	0.589300
C1541	C154	0.643500	0.788100	0.612100
C1551	C155	0.024900	0.918400	0.234400
C1561	C156	0.990200	0.949400	0.294700
C1571	C157	0.004000	0.030600	0.307700
C1581	C158	0.973800	0.058500	0.364500
C1591	C159	0.931300	0.005900	0.409200
C1601	C160	0.917200	0.925900	0.396500
C1611	C161	0.946400	0.898000	0.340300
C1621	C162	0.795900	0.056100	0.463500
C1631	C163	0.784700	0.129700	0.440700
C1641	C164	0.706100	0.140700	0.423600
C1651	C165	0.641800	0.078600	0.427900
C1661	C166	0.653300	0.006200	0.452500
C1671	C167	0.730300	0.994700	0.471000
C1681	C168	0.558300	0.089200	0.405000
S11	S1	0.448510	0.229140	0.722580
S21	S2	0.446390	0.146090	0.937460
S31	S3	0.395260	0.540790	0.017000
S41	S4	0.051490	0.270860	0.222580
S51	S5	0.053610	0.353910	0.437460
S61	S6	0.104740	0.959210	0.517000
S71	S7	0.551490	0.770860	0.277420
S81	S8	0.553610	0.853910	0.062540
S91	S9	0.604740	0.459210	0.983000
S101	S10	0.948510	0.729140	0.777420
S111	S11	0.946390	0.646090	0.562540
S121	S12	0.895260	0.040790	0.483000
O11	O1	0.562700	0.444700	0.455800
O21	O2	0.571500	0.330400	0.415600
O31	O3	0.424600	0.288400	0.764300
O41	O4	0.396700	0.153700	0.716200
O51	O5	0.838900	0.230800	0.811200
O61	O6	0.787900	0.101400	0.815500
O71	O7	0.508800	0.182300	0.258900
O81	O8	0.417000	0.073000	0.261200
O91	O9	0.516000	0.203800	0.916200
O101	O10	0.431500	0.067300	0.912500
O111	O11	0.151600	0.361700	0.896600
O121	O12	0.083300	0.244400	0.867100
O131	O13	0.516600	0.345500	0.271500
O141	O14	0.561100	0.468800	0.306000
O151	O15	0.387500	0.479100	0.969200
O161	O16	0.443600	0.616500	0.002500
O171	O17	0.003900	0.529100	0.101400
O181	O18	0.047000	0.657600	0.106700
O191	O19	0.937300	0.055300	0.955800
O201	O20	0.928500	0.169600	0.915600
O211	O21	0.075400	0.211600	0.264300
O221	O22	0.103300	0.346300	0.216200
O231	O23	0.661100	0.269200	0.311200
O241	O24	0.712100	0.398600	0.315500
O251	O25	0.991200	0.317700	0.758900
O261	O26	0.083000	0.427000	0.761200
O271	O27	0.984000	0.296200	0.416200
O281	O28	0.068500	0.432700	0.412500
O291	O29	0.348400	0.138300	0.396600
O301	O30	0.416700	0.255600	0.367100
O311	O31	0.983400	0.154500	0.771500
O321	O32	0.938900	0.031200	0.806000
O331	O33	0.112500	0.020900	0.469200
O341	O34	0.056400	0.883500	0.502500
O351	O35	0.496100	0.970900	0.601400
O361	O36	0.453000	0.842400	0.606700
O371	O37	0.437300	0.555300	0.544200
O381	O38	0.428500	0.669600	0.584400
O391	O39	0.575400	0.711600	0.235700
O401	O40	0.603300	0.846300	0.283800
O411	O41	0.161100	0.769200	0.188800
O421	O42	0.212100	0.898600	0.184500
O431	O43	0.491200	0.817700	0.741100
O441	O44	0.583000	0.927000	0.738800
O451	O45	0.484000	0.796200	0.083800
O461	O46	0.568500	0.932700	0.087500
O471	O47	0.848400	0.638300	0.103400
O481	O48	0.916700	0.755600	0.132900
O491	O49	0.483400	0.654500	0.728500
O501	O50	0.438900	0.531200	0.694000
O511	O51	0.612500	0.520900	0.030800
O521	O52	0.556400	0.383500	0.997500
O531	O53	0.996100	0.470900	0.898600
O541	O54	0.953000	0.342400	0.893300
O551	O55	0.062700	0.944700	0.044200
O561	O56	0.071500	0.830400	0.084400
O571	O57	0.924600	0.788400	0.735700
O581	O58	0.896700	0.653700	0.783800
O591	O59	0.338900	0.730800	0.688800
O601	O60	0.287900	0.601400	0.684500
O611	O61	0.008800	0.682300	0.241100
O621	O62	0.917000	0.573000	0.238800
O631	O63	0.016000	0.703800	0.583800
O641	O64	0.931500	0.567300	0.587500
O651	O65	0.651600	0.861700	0.603400
O661	O66	0.583300	0.744400	0.632900
O671	O67	0.016600	0.845500	0.228500
O681	O68	0.061100	0.968800	0.194000
O691	O69	0.887500	0.979100	0.530800
O701	O70	0.943600	0.116500	0.497500
O711	O71	0.503900	0.029100	0.398600
O721	O72	0.547000	0.157600	0.393300
