data_VIZTIJ_clean_PM
_symmetry_space_group_name_H-M	'P1'
_cell_length_a	35.832000
_cell_length_b	14.838000
_cell_length_c	30.783000
_cell_angle_alpha	90.000000
_cell_angle_beta	102.066000
_cell_angle_gamma	90.000000
_symmetry_Int_Tables_number 1

loop_
_symmetry_equiv_pos_as_xyz
'x,y,z'

loop_
_atom_site_label
_atom_site_type_symbol
_atom_site_fract_x
_atom_site_fract_y
_atom_site_fract_z
I11	I1	0.640690	0.108190	0.992820
I21	I2	0.600130	0.232980	0.106890
I31	I3	0.265760	0.771900	0.199280
I41	I4	0.369350	0.841320	0.302050
I51	I5	0.391320	0.252870	0.944090
I61	I6	0.476130	0.356070	0.868200
Zn11	Zn1	0.621650	0.099050	0.066870
Zn21	Zn2	0.419570	0.376080	0.905310
Zn31	Zn3	0.326540	0.862170	0.225600
N11	N1	0.816760	0.827600	0.250800
N21	N2	0.777570	0.955200	0.228700
N31	N3	0.763620	0.816300	0.190100
N41	N4	0.878760	0.058000	0.358100
N51	N5	0.665410	0.035900	0.110070
N61	N6	0.814490	0.498700	0.219600
C11	C1	0.807100	0.913800	0.254100
C21	C2	0.831700	0.965200	0.290700
C31	C3	0.861900	0.923400	0.317000
H11	H1	0.867400	0.862000	0.312300
C41	C4	0.884500	0.971900	0.350800
H21	H2	0.905100	0.942000	0.369800
C51	C5	0.849400	0.099200	0.332500
H31	H3	0.844900	0.161000	0.337700
C61	C6	0.824900	0.054200	0.298300
H41	H4	0.803800	0.084600	0.280500
C71	C7	0.757500	0.904000	0.196300
C81	C8	0.725200	0.949300	0.165900
C91	C9	0.715800	0.037200	0.174000
H51	H5	0.729900	0.069100	0.198900
C101	C10	0.685800	0.078100	0.145700
H61	H6	0.679200	0.138200	0.151700
C111	C11	0.674700	0.951400	0.102200
H71	H7	0.660400	0.921600	0.076800
C121	C12	0.704100	0.904900	0.129300
H81	H8	0.709600	0.844300	0.123000
C131	C13	0.793300	0.781700	0.218800
C141	C14	0.800600	0.683200	0.217100
C151	C15	0.774100	0.624000	0.193700
H91	H9	0.750800	0.645800	0.176200
C161	C16	0.781800	0.533000	0.195800
H101	H10	0.763300	0.492900	0.179800
C171	C17	0.840200	0.556000	0.242500
H111	H11	0.863300	0.532400	0.259500
C181	C18	0.834400	0.647900	0.242400
H121	H12	0.853100	0.686700	0.259200
N71	N7	0.426180	0.720800	0.063800
N81	N8	0.476130	0.770000	0.029820
N91	N9	0.462890	0.849600	0.091700
N101	N10	0.430940	0.482700	0.949700
N111	N11	0.578360	0.006700	0.062900
N121	N12	0.360500	0.841700	0.180100
C191	C19	0.448200	0.713100	0.034700
C201	C20	0.442000	0.633200	0.004700
C211	C21	0.409900	0.581400	0.000400
H131	H13	0.390700	0.596700	0.016200
C221	C22	0.405500	0.506400	0.973000
H141	H14	0.383200	0.470600	0.970800
C231	C23	0.462400	0.534500	0.953000
H151	H15	0.480900	0.518600	0.936300
C241	C24	0.468800	0.610100	0.980100
H161	H16	0.491200	0.645400	0.981700
C251	C25	0.482800	0.834600	0.060400
C261	C26	0.515600	0.894600	0.060600
C271	C27	0.528900	0.913100	0.022600
H171	H17	0.516600	0.887200	0.995100
C281	C28	0.560300	0.969700	0.024200
H181	H18	0.569100	0.982200	0.997800
C291	C29	0.565900	0.986300	0.100000
H191	H19	0.579200	0.010900	0.127400
C301	C30	0.535200	0.932200	0.100300
H201	H20	0.527300	0.920200	0.127400
C311	C31	0.434000	0.791800	0.091000
C321	C32	0.408900	0.808000	0.122300
C331	C33	0.419100	0.867400	0.156900
H211	H21	0.442700	0.898700	0.161100
C341	C34	0.394700	0.881100	0.185600
H221	H22	0.402600	0.920200	0.210200
C351	C35	0.350800	0.784000	0.145900
H231	H23	0.327000	0.753700	0.141800
C361	C36	0.374300	0.767100	0.116600
H241	H24	0.366300	0.726900	0.092400
I71	I7	0.140690	0.608190	0.992820
I81	I8	0.100130	0.732980	0.106890
I91	I9	0.765760	0.271900	0.199280
I101	I10	0.869350	0.341320	0.302050
I111	I11	0.891320	0.752870	0.944090
I121	I12	0.976130	0.856070	0.868200
Zn41	Zn4	0.121650	0.599050	0.066870
Zn51	Zn5	0.919570	0.876080	0.905310
Zn61	Zn6	0.826540	0.362170	0.225600
N131	N13	0.316760	0.327600	0.250800
N141	N14	0.277570	0.455200	0.228700
N151	N15	0.263620	0.316300	0.190100
N161	N16	0.378760	0.558000	0.358100
N171	N17	0.165410	0.535900	0.110070
N181	N18	0.314490	0.998700	0.219600
C371	C37	0.307100	0.413800	0.254100
C381	C38	0.331700	0.465200	0.290700
C391	C39	0.361900	0.423400	0.317000
H251	H25	0.367400	0.362000	0.312300
C401	C40	0.384500	0.471900	0.350800
H261	H26	0.405100	0.442000	0.369800
C411	C41	0.349400	0.599200	0.332500
H271	H27	0.344900	0.661000	0.337700
C421	C42	0.324900	0.554200	0.298300
H281	H28	0.303800	0.584600	0.280500
C431	C43	0.257500	0.404000	0.196300
C441	C44	0.225200	0.449300	0.165900
C451	C45	0.215800	0.537200	0.174000
H291	H29	0.229900	0.569100	0.198900
C461	C46	0.185800	0.578100	0.145700
H301	H30	0.179200	0.638200	0.151700
C471	C47	0.174700	0.451400	0.102200
H311	H31	0.160400	0.421600	0.076800
C481	C48	0.204100	0.404900	0.129300
H321	H32	0.209600	0.344300	0.123000
C491	C49	0.293300	0.281700	0.218800
C501	C50	0.300600	0.183200	0.217100
C511	C51	0.274100	0.124000	0.193700
H331	H33	0.250800	0.145800	0.176200
C521	C52	0.281800	0.033000	0.195800
H341	H34	0.263300	0.992900	0.179800
C531	C53	0.340200	0.056000	0.242500
H351	H35	0.363300	0.032400	0.259500
C541	C54	0.334400	0.147900	0.242400
H361	H36	0.353100	0.186700	0.259200
N191	N19	0.926180	0.220800	0.063800
N201	N20	0.976130	0.270000	0.029820
N211	N21	0.962890	0.349600	0.091700
N221	N22	0.930940	0.982700	0.949700
N231	N23	0.078360	0.506700	0.062900
N241	N24	0.860500	0.341700	0.180100
C551	C55	0.948200	0.213100	0.034700
C561	C56	0.942000	0.133200	0.004700
C571	C57	0.909900	0.081400	0.000400
H371	H37	0.890700	0.096700	0.016200
C581	C58	0.905500	0.006400	0.973000
H381	H38	0.883200	0.970600	0.970800
C591	C59	0.962400	0.034500	0.953000
H391	H39	0.980900	0.018600	0.936300
C601	C60	0.968800	0.110100	0.980100
H401	H40	0.991200	0.145400	0.981700
C611	C61	0.982800	0.334600	0.060400
C621	C62	0.015600	0.394600	0.060600
C631	C63	0.028900	0.413100	0.022600
H411	H41	0.016600	0.387200	0.995100
C641	C64	0.060300	0.469700	0.024200
H421	H42	0.069100	0.482200	0.997800
C651	C65	0.065900	0.486300	0.100000
H431	H43	0.079200	0.510900	0.127400
C661	C66	0.035200	0.432200	0.100300
H441	H44	0.027300	0.420200	0.127400
C671	C67	0.934000	0.291800	0.091000
C681	C68	0.908900	0.308000	0.122300
C691	C69	0.919100	0.367400	0.156900
H451	H45	0.942700	0.398700	0.161100
C701	C70	0.894700	0.381100	0.185600
H461	H46	0.902600	0.420200	0.210200
C711	C71	0.850800	0.284000	0.145900
H471	H47	0.827000	0.253700	0.141800
C721	C72	0.874300	0.267100	0.116600
H481	H48	0.866300	0.226900	0.092400
I131	I13	0.640690	0.891810	0.492820
I141	I14	0.600130	0.767020	0.606890
I151	I15	0.265760	0.228100	0.699280
I161	I16	0.369350	0.158680	0.802050
I171	I17	0.391320	0.747130	0.444090
I181	I18	0.476130	0.643930	0.368200
Zn71	Zn7	0.621650	0.900950	0.566870
Zn81	Zn8	0.419570	0.623920	0.405310
Zn91	Zn9	0.326540	0.137830	0.725600
N251	N25	0.816760	0.172400	0.750800
N261	N26	0.777570	0.044800	0.728700
N271	N27	0.763620	0.183700	0.690100
N281	N28	0.878760	0.942000	0.858100
N291	N29	0.665410	0.964100	0.610070
N301	N30	0.814490	0.501300	0.719600
C731	C73	0.807100	0.086200	0.754100
C741	C74	0.831700	0.034800	0.790700
C751	C75	0.861900	0.076600	0.817000
H491	H49	0.867400	0.138000	0.812300
C761	C76	0.884500	0.028100	0.850800
H501	H50	0.905100	0.058000	0.869800
C771	C77	0.849400	0.900800	0.832500
H511	H51	0.844900	0.839000	0.837700
C781	C78	0.824900	0.945800	0.798300
H521	H52	0.803800	0.915400	0.780500
C791	C79	0.757500	0.096000	0.696300
C801	C80	0.725200	0.050700	0.665900
C811	C81	0.715800	0.962800	0.674000
H531	H53	0.729900	0.930900	0.698900
C821	C82	0.685800	0.921900	0.645700
H541	H54	0.679200	0.861800	0.651700
C831	C83	0.674700	0.048600	0.602200
H551	H55	0.660400	0.078400	0.576800
C841	C84	0.704100	0.095100	0.629300
H561	H56	0.709600	0.155700	0.623000
C851	C85	0.793300	0.218300	0.718800
C861	C86	0.800600	0.316800	0.717100
C871	C87	0.774100	0.376000	0.693700
H571	H57	0.750800	0.354200	0.676200
C881	C88	0.781800	0.467000	0.695800
H581	H58	0.763300	0.507100	0.679800
C891	C89	0.840200	0.444000	0.742500
H591	H59	0.863300	0.467600	0.759500
C901	C90	0.834400	0.352100	0.742400
H601	H60	0.853100	0.313300	0.759200
N311	N31	0.426180	0.279200	0.563800
N321	N32	0.476130	0.230000	0.529820
N331	N33	0.462890	0.150400	0.591700
N341	N34	0.430940	0.517300	0.449700
N351	N35	0.578360	0.993300	0.562900
N361	N36	0.360500	0.158300	0.680100
C911	C91	0.448200	0.286900	0.534700
C921	C92	0.442000	0.366800	0.504700
C931	C93	0.409900	0.418600	0.500400
H611	H61	0.390700	0.403300	0.516200
C941	C94	0.405500	0.493600	0.473000
H621	H62	0.383200	0.529400	0.470800
C951	C95	0.462400	0.465500	0.453000
H631	H63	0.480900	0.481400	0.436300
C961	C96	0.468800	0.389900	0.480100
H641	H64	0.491200	0.354600	0.481700
C971	C97	0.482800	0.165400	0.560400
C981	C98	0.515600	0.105400	0.560600
C991	C99	0.528900	0.086900	0.522600
H651	H65	0.516600	0.112800	0.495100
C1001	C100	0.560300	0.030300	0.524200
H661	H66	0.569100	0.017800	0.497800
C1011	C101	0.565900	0.013700	0.600000
H671	H67	0.579200	0.989100	0.627400
C1021	C102	0.535200	0.067800	0.600300
H681	H68	0.527300	0.079800	0.627400
C1031	C103	0.434000	0.208200	0.591000
C1041	C104	0.408900	0.192000	0.622300
C1051	C105	0.419100	0.132600	0.656900
H691	H69	0.442700	0.101300	0.661100
C1061	C106	0.394700	0.118900	0.685600
H701	H70	0.402600	0.079800	0.710200
C1071	C107	0.350800	0.216000	0.645900
H711	H71	0.327000	0.246300	0.641800
C1081	C108	0.374300	0.232900	0.616600
H721	H72	0.366300	0.273100	0.592400
I191	I19	0.140690	0.391810	0.492820
I201	I20	0.100130	0.267020	0.606890
I211	I21	0.765760	0.728100	0.699280
I221	I22	0.869350	0.658680	0.802050
I231	I23	0.891320	0.247130	0.444090
I241	I24	0.976130	0.143930	0.368200
Zn101	Zn10	0.121650	0.400950	0.566870
Zn111	Zn11	0.919570	0.123920	0.405310
Zn121	Zn12	0.826540	0.637830	0.725600
N371	N37	0.316760	0.672400	0.750800
N381	N38	0.277570	0.544800	0.728700
N391	N39	0.263620	0.683700	0.690100
N401	N40	0.378760	0.442000	0.858100
N411	N41	0.165410	0.464100	0.610070
N421	N42	0.314490	0.001300	0.719600
C1091	C109	0.307100	0.586200	0.754100
C1101	C110	0.331700	0.534800	0.790700
C1111	C111	0.361900	0.576600	0.817000
H731	H73	0.367400	0.638000	0.812300
C1121	C112	0.384500	0.528100	0.850800
H741	H74	0.405100	0.558000	0.869800
C1131	C113	0.349400	0.400800	0.832500
H751	H75	0.344900	0.339000	0.837700
C1141	C114	0.324900	0.445800	0.798300
H761	H76	0.303800	0.415400	0.780500
C1151	C115	0.257500	0.596000	0.696300
C1161	C116	0.225200	0.550700	0.665900
C1171	C117	0.215800	0.462800	0.674000
H771	H77	0.229900	0.430900	0.698900
C1181	C118	0.185800	0.421900	0.645700
H781	H78	0.179200	0.361800	0.651700
C1191	C119	0.174700	0.548600	0.602200
H791	H79	0.160400	0.578400	0.576800
C1201	C120	0.204100	0.595100	0.629300
H801	H80	0.209600	0.655700	0.623000
C1211	C121	0.293300	0.718300	0.718800
C1221	C122	0.300600	0.816800	0.717100
C1231	C123	0.274100	0.876000	0.693700
H811	H81	0.250800	0.854200	0.676200
C1241	C124	0.281800	0.967000	0.695800
H821	H82	0.263300	0.007100	0.679800
C1251	C125	0.340200	0.944000	0.742500
H831	H83	0.363300	0.967600	0.759500
C1261	C126	0.334400	0.852100	0.742400
H841	H84	0.353100	0.813300	0.759200
N431	N43	0.926180	0.779200	0.563800
N441	N44	0.976130	0.730000	0.529820
N451	N45	0.962890	0.650400	0.591700
N461	N46	0.930940	0.017300	0.449700
N471	N47	0.078360	0.493300	0.562900
N481	N48	0.860500	0.658300	0.680100
C1271	C127	0.948200	0.786900	0.534700
C1281	C128	0.942000	0.866800	0.504700
C1291	C129	0.909900	0.918600	0.500400
H851	H85	0.890700	0.903300	0.516200
C1301	C130	0.905500	0.993600	0.473000
H861	H86	0.883200	0.029400	0.470800
C1311	C131	0.962400	0.965500	0.453000
H871	H87	0.980900	0.981400	0.436300
C1321	C132	0.968800	0.889900	0.480100
H881	H88	0.991200	0.854600	0.481700
C1331	C133	0.982800	0.665400	0.560400
C1341	C134	0.015600	0.605400	0.560600
C1351	C135	0.028900	0.586900	0.522600
H891	H89	0.016600	0.612800	0.495100
C1361	C136	0.060300	0.530300	0.524200
H901	H90	0.069100	0.517800	0.497800
C1371	C137	0.065900	0.513700	0.600000
H911	H91	0.079200	0.489100	0.627400
C1381	C138	0.035200	0.567800	0.600300
H921	H92	0.027300	0.579800	0.627400
C1391	C139	0.934000	0.708200	0.591000
C1401	C140	0.908900	0.692000	0.622300
C1411	C141	0.919100	0.632600	0.656900
H931	H93	0.942700	0.601300	0.661100
C1421	C142	0.894700	0.618900	0.685600
H941	H94	0.902600	0.579800	0.710200
C1431	C143	0.850800	0.716000	0.645900
H951	H95	0.827000	0.746300	0.641800
C1441	C144	0.874300	0.732900	0.616600
H961	H96	0.866300	0.773100	0.592400
I251	I25	0.359310	0.108190	0.507180
I261	I26	0.399870	0.232980	0.393110
I271	I27	0.734240	0.771900	0.300720
I281	I28	0.630650	0.841320	0.197950
I291	I29	0.608680	0.252870	0.555910
I301	I30	0.523870	0.356070	0.631800
Zn131	Zn13	0.378350	0.099050	0.433130
Zn141	Zn14	0.580430	0.376080	0.594690
Zn151	Zn15	0.673460	0.862170	0.274400
N491	N49	0.183240	0.827600	0.249200
N501	N50	0.222430	0.955200	0.271300
N511	N51	0.236380	0.816300	0.309900
N521	N52	0.121240	0.058000	0.141900
N531	N53	0.334590	0.035900	0.389930
N541	N54	0.185510	0.498700	0.280400
C1451	C145	0.192900	0.913800	0.245900
C1461	C146	0.168300	0.965200	0.209300
C1471	C147	0.138100	0.923400	0.183000
H971	H97	0.132600	0.862000	0.187700
C1481	C148	0.115500	0.971900	0.149200
H981	H98	0.094900	0.942000	0.130200
C1491	C149	0.150600	0.099200	0.167500
H991	H99	0.155100	0.161000	0.162300
C1501	C150	0.175100	0.054200	0.201700
H1001	H100	0.196200	0.084600	0.219500
C1511	C151	0.242500	0.904000	0.303700
C1521	C152	0.274800	0.949300	0.334100
C1531	C153	0.284200	0.037200	0.326000
H1011	H101	0.270100	0.069100	0.301100
C1541	C154	0.314200	0.078100	0.354300
H1021	H102	0.320800	0.138200	0.348300
C1551	C155	0.325300	0.951400	0.397800
H1031	H103	0.339600	0.921600	0.423200
C1561	C156	0.295900	0.904900	0.370700
H1041	H104	0.290400	0.844300	0.377000
C1571	C157	0.206700	0.781700	0.281200
C1581	C158	0.199400	0.683200	0.282900
C1591	C159	0.225900	0.624000	0.306300
H1051	H105	0.249200	0.645800	0.323800
C1601	C160	0.218200	0.533000	0.304200
H1061	H106	0.236700	0.492900	0.320200
C1611	C161	0.159800	0.556000	0.257500
H1071	H107	0.136700	0.532400	0.240500
C1621	C162	0.165600	0.647900	0.257600
H1081	H108	0.146900	0.686700	0.240800
N551	N55	0.573820	0.720800	0.436200
N561	N56	0.523870	0.770000	0.470180
N571	N57	0.537110	0.849600	0.408300
N581	N58	0.569060	0.482700	0.550300
N591	N59	0.421640	0.006700	0.437100
N601	N60	0.639500	0.841700	0.319900
C1631	C163	0.551800	0.713100	0.465300
C1641	C164	0.558000	0.633200	0.495300
C1651	C165	0.590100	0.581400	0.499600
H1091	H109	0.609300	0.596700	0.483800
C1661	C166	0.594500	0.506400	0.527000
H1101	H110	0.616800	0.470600	0.529200
C1671	C167	0.537600	0.534500	0.547000
H1111	H111	0.519100	0.518600	0.563700
C1681	C168	0.531200	0.610100	0.519900
H1121	H112	0.508800	0.645400	0.518300
C1691	C169	0.517200	0.834600	0.439600
C1701	C170	0.484400	0.894600	0.439400
C1711	C171	0.471100	0.913100	0.477400
H1131	H113	0.483400	0.887200	0.504900
C1721	C172	0.439700	0.969700	0.475800
H1141	H114	0.430900	0.982200	0.502200
C1731	C173	0.434100	0.986300	0.400000
H1151	H115	0.420800	0.010900	0.372600
C1741	C174	0.464800	0.932200	0.399700
H1161	H116	0.472700	0.920200	0.372600
C1751	C175	0.566000	0.791800	0.409000
C1761	C176	0.591100	0.808000	0.377700
C1771	C177	0.580900	0.867400	0.343100
H1171	H117	0.557300	0.898700	0.338900
C1781	C178	0.605300	0.881100	0.314400
H1181	H118	0.597400	0.920200	0.289800
C1791	C179	0.649200	0.784000	0.354100
H1191	H119	0.673000	0.753700	0.358200
C1801	C180	0.625700	0.767100	0.383400
H1201	H120	0.633700	0.726900	0.407600
I311	I31	0.859310	0.608190	0.507180
I321	I32	0.899870	0.732980	0.393110
I331	I33	0.234240	0.271900	0.300720
I341	I34	0.130650	0.341320	0.197950
I351	I35	0.108680	0.752870	0.555910
I361	I36	0.023870	0.856070	0.631800
Zn161	Zn16	0.878350	0.599050	0.433130
Zn171	Zn17	0.080430	0.876080	0.594690
Zn181	Zn18	0.173460	0.362170	0.274400
N611	N61	0.683240	0.327600	0.249200
N621	N62	0.722430	0.455200	0.271300
N631	N63	0.736380	0.316300	0.309900
N641	N64	0.621240	0.558000	0.141900
N651	N65	0.834590	0.535900	0.389930
N661	N66	0.685510	0.998700	0.280400
C1811	C181	0.692900	0.413800	0.245900
C1821	C182	0.668300	0.465200	0.209300
C1831	C183	0.638100	0.423400	0.183000
H1211	H121	0.632600	0.362000	0.187700
C1841	C184	0.615500	0.471900	0.149200
H1221	H122	0.594900	0.442000	0.130200
C1851	C185	0.650600	0.599200	0.167500
H1231	H123	0.655100	0.661000	0.162300
C1861	C186	0.675100	0.554200	0.201700
H1241	H124	0.696200	0.584600	0.219500
C1871	C187	0.742500	0.404000	0.303700
C1881	C188	0.774800	0.449300	0.334100
C1891	C189	0.784200	0.537200	0.326000
H1251	H125	0.770100	0.569100	0.301100
C1901	C190	0.814200	0.578100	0.354300
H1261	H126	0.820800	0.638200	0.348300
C1911	C191	0.825300	0.451400	0.397800
H1271	H127	0.839600	0.421600	0.423200
C1921	C192	0.795900	0.404900	0.370700
H1281	H128	0.790400	0.344300	0.377000
C1931	C193	0.706700	0.281700	0.281200
C1941	C194	0.699400	0.183200	0.282900
C1951	C195	0.725900	0.124000	0.306300
H1291	H129	0.749200	0.145800	0.323800
C1961	C196	0.718200	0.033000	0.304200
H1301	H130	0.736700	0.992900	0.320200
C1971	C197	0.659800	0.056000	0.257500
H1311	H131	0.636700	0.032400	0.240500
C1981	C198	0.665600	0.147900	0.257600
H1321	H132	0.646900	0.186700	0.240800
N671	N67	0.073820	0.220800	0.436200
N681	N68	0.023870	0.270000	0.470180
N691	N69	0.037110	0.349600	0.408300
N701	N70	0.069060	0.982700	0.550300
N711	N71	0.921640	0.506700	0.437100
N721	N72	0.139500	0.341700	0.319900
C1991	C199	0.051800	0.213100	0.465300
C2001	C200	0.058000	0.133200	0.495300
C2011	C201	0.090100	0.081400	0.499600
H1331	H133	0.109300	0.096700	0.483800
C2021	C202	0.094500	0.006400	0.527000
H1341	H134	0.116800	0.970600	0.529200
C2031	C203	0.037600	0.034500	0.547000
H1351	H135	0.019100	0.018600	0.563700
C2041	C204	0.031200	0.110100	0.519900
H1361	H136	0.008800	0.145400	0.518300
C2051	C205	0.017200	0.334600	0.439600
C2061	C206	0.984400	0.394600	0.439400
C2071	C207	0.971100	0.413100	0.477400
H1371	H137	0.983400	0.387200	0.504900
C2081	C208	0.939700	0.469700	0.475800
H1381	H138	0.930900	0.482200	0.502200
C2091	C209	0.934100	0.486300	0.400000
H1391	H139	0.920800	0.510900	0.372600
C2101	C210	0.964800	0.432200	0.399700
H1401	H140	0.972700	0.420200	0.372600
C2111	C211	0.066000	0.291800	0.409000
C2121	C212	0.091100	0.308000	0.377700
C2131	C213	0.080900	0.367400	0.343100
H1411	H141	0.057300	0.398700	0.338900
C2141	C214	0.105300	0.381100	0.314400
H1421	H142	0.097400	0.420200	0.289800
C2151	C215	0.149200	0.284000	0.354100
H1431	H143	0.173000	0.253700	0.358200
C2161	C216	0.125700	0.267100	0.383400
H1441	H144	0.133700	0.226900	0.407600
I371	I37	0.359310	0.891810	0.007180
I381	I38	0.399870	0.767020	0.893110
I391	I39	0.734240	0.228100	0.800720
I401	I40	0.630650	0.158680	0.697950
I411	I41	0.608680	0.747130	0.055910
I421	I42	0.523870	0.643930	0.131800
Zn191	Zn19	0.378350	0.900950	0.933130
Zn201	Zn20	0.580430	0.623920	0.094690
Zn211	Zn21	0.673460	0.137830	0.774400
N731	N73	0.183240	0.172400	0.749200
N741	N74	0.222430	0.044800	0.771300
N751	N75	0.236380	0.183700	0.809900
N761	N76	0.121240	0.942000	0.641900
N771	N77	0.334590	0.964100	0.889930
N781	N78	0.185510	0.501300	0.780400
C2171	C217	0.192900	0.086200	0.745900
C2181	C218	0.168300	0.034800	0.709300
C2191	C219	0.138100	0.076600	0.683000
H1451	H145	0.132600	0.138000	0.687700
C2201	C220	0.115500	0.028100	0.649200
H1461	H146	0.094900	0.058000	0.630200
C2211	C221	0.150600	0.900800	0.667500
H1471	H147	0.155100	0.839000	0.662300
C2221	C222	0.175100	0.945800	0.701700
H1481	H148	0.196200	0.915400	0.719500
C2231	C223	0.242500	0.096000	0.803700
C2241	C224	0.274800	0.050700	0.834100
C2251	C225	0.284200	0.962800	0.826000
H1491	H149	0.270100	0.930900	0.801100
C2261	C226	0.314200	0.921900	0.854300
H1501	H150	0.320800	0.861800	0.848300
C2271	C227	0.325300	0.048600	0.897800
H1511	H151	0.339600	0.078400	0.923200
C2281	C228	0.295900	0.095100	0.870700
H1521	H152	0.290400	0.155700	0.877000
C2291	C229	0.206700	0.218300	0.781200
C2301	C230	0.199400	0.316800	0.782900
C2311	C231	0.225900	0.376000	0.806300
H1531	H153	0.249200	0.354200	0.823800
C2321	C232	0.218200	0.467000	0.804200
H1541	H154	0.236700	0.507100	0.820200
C2331	C233	0.159800	0.444000	0.757500
H1551	H155	0.136700	0.467600	0.740500
C2341	C234	0.165600	0.352100	0.757600
H1561	H156	0.146900	0.313300	0.740800
N791	N79	0.573820	0.279200	0.936200
N801	N80	0.523870	0.230000	0.970180
N811	N81	0.537110	0.150400	0.908300
N821	N82	0.569060	0.517300	0.050300
N831	N83	0.421640	0.993300	0.937100
N841	N84	0.639500	0.158300	0.819900
C2351	C235	0.551800	0.286900	0.965300
C2361	C236	0.558000	0.366800	0.995300
C2371	C237	0.590100	0.418600	0.999600
H1571	H157	0.609300	0.403300	0.983800
C2381	C238	0.594500	0.493600	0.027000
H1581	H158	0.616800	0.529400	0.029200
C2391	C239	0.537600	0.465500	0.047000
H1591	H159	0.519100	0.481400	0.063700
C2401	C240	0.531200	0.389900	0.019900
H1601	H160	0.508800	0.354600	0.018300
C2411	C241	0.517200	0.165400	0.939600
C2421	C242	0.484400	0.105400	0.939400
C2431	C243	0.471100	0.086900	0.977400
H1611	H161	0.483400	0.112800	0.004900
C2441	C244	0.439700	0.030300	0.975800
H1621	H162	0.430900	0.017800	0.002200
C2451	C245	0.434100	0.013700	0.900000
H1631	H163	0.420800	0.989100	0.872600
C2461	C246	0.464800	0.067800	0.899700
H1641	H164	0.472700	0.079800	0.872600
C2471	C247	0.566000	0.208200	0.909000
C2481	C248	0.591100	0.192000	0.877700
C2491	C249	0.580900	0.132600	0.843100
H1651	H165	0.557300	0.101300	0.838900
C2501	C250	0.605300	0.118900	0.814400
H1661	H166	0.597400	0.079800	0.789800
C2511	C251	0.649200	0.216000	0.854100
H1671	H167	0.673000	0.246300	0.858200
C2521	C252	0.625700	0.232900	0.883400
H1681	H168	0.633700	0.273100	0.907600
I431	I43	0.859310	0.391810	0.007180
I441	I44	0.899870	0.267020	0.893110
I451	I45	0.234240	0.728100	0.800720
I461	I46	0.130650	0.658680	0.697950
I471	I47	0.108680	0.247130	0.055910
I481	I48	0.023870	0.143930	0.131800
Zn221	Zn22	0.878350	0.400950	0.933130
Zn231	Zn23	0.080430	0.123920	0.094690
Zn241	Zn24	0.173460	0.637830	0.774400
N851	N85	0.683240	0.672400	0.749200
N861	N86	0.722430	0.544800	0.771300
N871	N87	0.736380	0.683700	0.809900
N881	N88	0.621240	0.442000	0.641900
N891	N89	0.834590	0.464100	0.889930
N901	N90	0.685510	0.001300	0.780400
C2531	C253	0.692900	0.586200	0.745900
C2541	C254	0.668300	0.534800	0.709300
C2551	C255	0.638100	0.576600	0.683000
H1691	H169	0.632600	0.638000	0.687700
C2561	C256	0.615500	0.528100	0.649200
H1701	H170	0.594900	0.558000	0.630200
C2571	C257	0.650600	0.400800	0.667500
H1711	H171	0.655100	0.339000	0.662300
C2581	C258	0.675100	0.445800	0.701700
H1721	H172	0.696200	0.415400	0.719500
C2591	C259	0.742500	0.596000	0.803700
C2601	C260	0.774800	0.550700	0.834100
C2611	C261	0.784200	0.462800	0.826000
H1731	H173	0.770100	0.430900	0.801100
C2621	C262	0.814200	0.421900	0.854300
H1741	H174	0.820800	0.361800	0.848300
C2631	C263	0.825300	0.548600	0.897800
H1751	H175	0.839600	0.578400	0.923200
C2641	C264	0.795900	0.595100	0.870700
H1761	H176	0.790400	0.655700	0.877000
C2651	C265	0.706700	0.718300	0.781200
C2661	C266	0.699400	0.816800	0.782900
C2671	C267	0.725900	0.876000	0.806300
H1771	H177	0.749200	0.854200	0.823800
C2681	C268	0.718200	0.967000	0.804200
H1781	H178	0.736700	0.007100	0.820200
C2691	C269	0.659800	0.944000	0.757500
H1791	H179	0.636700	0.967600	0.740500
C2701	C270	0.665600	0.852100	0.757600
H1801	H180	0.646900	0.813300	0.740800
N911	N91	0.073820	0.779200	0.936200
N921	N92	0.023870	0.730000	0.970180
N931	N93	0.037110	0.650400	0.908300
N941	N94	0.069060	0.017300	0.050300
N951	N95	0.921640	0.493300	0.937100
N961	N96	0.139500	0.658300	0.819900
C2711	C271	0.051800	0.786900	0.965300
C2721	C272	0.058000	0.866800	0.995300
C2731	C273	0.090100	0.918600	0.999600
H1811	H181	0.109300	0.903300	0.983800
C2741	C274	0.094500	0.993600	0.027000
H1821	H182	0.116800	0.029400	0.029200
C2751	C275	0.037600	0.965500	0.047000
H1831	H183	0.019100	0.981400	0.063700
C2761	C276	0.031200	0.889900	0.019900
H1841	H184	0.008800	0.854600	0.018300
C2771	C277	0.017200	0.665400	0.939600
C2781	C278	0.984400	0.605400	0.939400
C2791	C279	0.971100	0.586900	0.977400
H1851	H185	0.983400	0.612800	0.004900
C2801	C280	0.939700	0.530300	0.975800
H1861	H186	0.930900	0.517800	0.002200
C2811	C281	0.934100	0.513700	0.900000
H1871	H187	0.920800	0.489100	0.872600
C2821	C282	0.964800	0.567800	0.899700
H1881	H188	0.972700	0.579800	0.872600
C2831	C283	0.066000	0.708200	0.909000
C2841	C284	0.091100	0.692000	0.877700
C2851	C285	0.080900	0.632600	0.843100
H1891	H189	0.057300	0.601300	0.838900
C2861	C286	0.105300	0.618900	0.814400
H1901	H190	0.097400	0.579800	0.789800
C2871	C287	0.149200	0.716000	0.854100
H1911	H191	0.173000	0.746300	0.858200
C2881	C288	0.125700	0.732900	0.883400
H1921	H192	0.133700	0.773100	0.907600
