data_VOBRUB_clean_PM
_symmetry_space_group_name_H-M	'P1'
_cell_length_a	17.763700
_cell_length_b	11.713500
_cell_length_c	11.219300
_cell_angle_alpha	90.000000
_cell_angle_beta	109.508000
_cell_angle_gamma	90.000000
_symmetry_Int_Tables_number 1

loop_
_symmetry_equiv_pos_as_xyz
'x,y,z'

loop_
_atom_site_label
_atom_site_type_symbol
_atom_site_fract_x
_atom_site_fract_y
_atom_site_fract_z
O11	O1	0.073530	0.984430	0.227790
O21	O2	0.113960	0.952620	0.433880
O31	O3	0.443170	0.308700	0.475740
O41	O4	0.431940	0.249150	0.280900
C11	C1	0.200560	0.055700	0.350100
C21	C2	0.220590	0.079100	0.243200
H11	H1	0.187700	0.053800	0.164500
C31	C3	0.289320	0.139900	0.252800
H21	H2	0.302800	0.153400	0.180800
C41	C4	0.338330	0.180800	0.369100
C51	C5	0.318280	0.156100	0.475800
H31	H3	0.350700	0.182300	0.554500
C61	C6	0.250600	0.092900	0.466700
H41	H4	0.238700	0.075500	0.539300
C71	C7	0.124460	0.993200	0.338700
C81	C8	0.410690	0.253200	0.379600
O51	O5	0.573530	0.484430	0.227790
O61	O6	0.613960	0.452620	0.433880
O71	O7	0.943170	0.808700	0.475740
O81	O8	0.931940	0.749150	0.280900
C91	C9	0.700560	0.555700	0.350100
C101	C10	0.720590	0.579100	0.243200
H51	H5	0.687700	0.553800	0.164500
C111	C11	0.789320	0.639900	0.252800
H61	H6	0.802800	0.653400	0.180800
C121	C12	0.838330	0.680800	0.369100
C131	C13	0.818280	0.656100	0.475800
H71	H7	0.850700	0.682300	0.554500
C141	C14	0.750600	0.592900	0.466700
H81	H8	0.738700	0.575500	0.539300
C151	C15	0.624460	0.493200	0.338700
C161	C16	0.910690	0.753200	0.379600
O91	O9	0.926470	0.984430	0.272210
O101	O10	0.886040	0.952620	0.066120
O111	O11	0.556830	0.308700	0.024260
O121	O12	0.568060	0.249150	0.219100
C171	C17	0.799440	0.055700	0.149900
C181	C18	0.779410	0.079100	0.256800
H91	H9	0.812300	0.053800	0.335500
C191	C19	0.710680	0.139900	0.247200
H101	H10	0.697200	0.153400	0.319200
C201	C20	0.661670	0.180800	0.130900
C211	C21	0.681720	0.156100	0.024200
H111	H11	0.649300	0.182300	0.945500
C221	C22	0.749400	0.092900	0.033300
H121	H12	0.761300	0.075500	0.960700
C231	C23	0.875540	0.993200	0.161300
C241	C24	0.589310	0.253200	0.120400
O131	O13	0.426470	0.484430	0.272210
O141	O14	0.386040	0.452620	0.066120
O151	O15	0.056830	0.808700	0.024260
O161	O16	0.068060	0.749150	0.219100
C251	C25	0.299440	0.555700	0.149900
C261	C26	0.279410	0.579100	0.256800
H131	H13	0.312300	0.553800	0.335500
C271	C27	0.210680	0.639900	0.247200
H141	H14	0.197200	0.653400	0.319200
C281	C28	0.161670	0.680800	0.130900
C291	C29	0.181720	0.656100	0.024200
H151	H15	0.149300	0.682300	0.945500
C301	C30	0.249400	0.592900	0.033300
H161	H16	0.261300	0.575500	0.960700
C311	C31	0.375540	0.493200	0.161300
C321	C32	0.089310	0.753200	0.120400
O171	O17	0.926470	0.015570	0.772210
O181	O18	0.886040	0.047380	0.566120
O191	O19	0.556830	0.691300	0.524260
O201	O20	0.568060	0.750850	0.719100
C331	C33	0.799440	0.944300	0.649900
C341	C34	0.779410	0.920900	0.756800
H171	H17	0.812300	0.946200	0.835500
C351	C35	0.710680	0.860100	0.747200
H181	H18	0.697200	0.846600	0.819200
C361	C36	0.661670	0.819200	0.630900
C371	C37	0.681720	0.843900	0.524200
H191	H19	0.649300	0.817700	0.445500
C381	C38	0.749400	0.907100	0.533300
H201	H20	0.761300	0.924500	0.460700
C391	C39	0.875540	0.006800	0.661300
C401	C40	0.589310	0.746800	0.620400
O211	O21	0.426470	0.515570	0.772210
O221	O22	0.386040	0.547380	0.566120
O231	O23	0.056830	0.191300	0.524260
O241	O24	0.068060	0.250850	0.719100
C411	C41	0.299440	0.444300	0.649900
C421	C42	0.279410	0.420900	0.756800
H211	H21	0.312300	0.446200	0.835500
C431	C43	0.210680	0.360100	0.747200
H221	H22	0.197200	0.346600	0.819200
C441	C44	0.161670	0.319200	0.630900
C451	C45	0.181720	0.343900	0.524200
H231	H23	0.149300	0.317700	0.445500
C461	C46	0.249400	0.407100	0.533300
H241	H24	0.261300	0.424500	0.460700
C471	C47	0.375540	0.506800	0.661300
C481	C48	0.089310	0.246800	0.620400
O251	O25	0.073530	0.015570	0.727790
O261	O26	0.113960	0.047380	0.933880
O271	O27	0.443170	0.691300	0.975740
O281	O28	0.431940	0.750850	0.780900
C491	C49	0.200560	0.944300	0.850100
C501	C50	0.220590	0.920900	0.743200
H251	H25	0.187700	0.946200	0.664500
C511	C51	0.289320	0.860100	0.752800
H261	H26	0.302800	0.846600	0.680800
C521	C52	0.338330	0.819200	0.869100
C531	C53	0.318280	0.843900	0.975800
H271	H27	0.350700	0.817700	0.054500
C541	C54	0.250600	0.907100	0.966700
H281	H28	0.238700	0.924500	0.039300
C551	C55	0.124460	0.006800	0.838700
C561	C56	0.410690	0.746800	0.879600
O291	O29	0.573530	0.515570	0.727790
O301	O30	0.613960	0.547380	0.933880
O311	O31	0.943170	0.191300	0.975740
O321	O32	0.931940	0.250850	0.780900
C571	C57	0.700560	0.444300	0.850100
C581	C58	0.720590	0.420900	0.743200
H291	H29	0.687700	0.446200	0.664500
C591	C59	0.789320	0.360100	0.752800
H301	H30	0.802800	0.346600	0.680800
C601	C60	0.838330	0.319200	0.869100
C611	C61	0.818280	0.343900	0.975800
H311	H31	0.850700	0.317700	0.054500
C621	C62	0.750600	0.407100	0.966700
H321	H32	0.738700	0.424500	0.039300
C631	C63	0.624460	0.506800	0.838700
C641	C64	0.910690	0.246800	0.879600
Cu11	Cu1	0.000000	0.864720	0.250000
Cu21	Cu2	0.500000	0.364720	0.250000
Cu31	Cu3	0.000000	0.135280	0.750000
Cu41	Cu4	0.500000	0.635280	0.750000
Na11	Na1	0.000000	0.000000	0.500000
Na21	Na2	0.500000	0.500000	0.500000
Na31	Na3	0.000000	0.000000	0.000000
Na41	Na4	0.500000	0.500000	0.000000
