data_VOCCOH_clean_PM
_symmetry_space_group_name_H-M	'P1'
_cell_length_a	14.726000
_cell_length_b	9.221000
_cell_length_c	16.969000
_cell_angle_alpha	90.000000
_cell_angle_beta	90.332000
_cell_angle_gamma	90.000000
_symmetry_Int_Tables_number 1

loop_
_symmetry_equiv_pos_as_xyz
'x,y,z'

loop_
_atom_site_label
_atom_site_type_symbol
_atom_site_fract_x
_atom_site_fract_y
_atom_site_fract_z
Ni11	Ni1	0.980950	0.837560	0.995140
Ni21	Ni2	0.194650	0.906550	0.038510
O11	O1	0.053800	0.804600	0.890500
O21	O2	0.191900	0.776000	0.943000
O31	O3	0.395600	0.647600	0.590900
O41	O4	0.264100	0.577500	0.533800
O51	O5	0.835700	0.629500	0.574500
O61	O6	0.744600	0.484500	0.638900
O71	O7	0.836700	0.264100	0.889400
O81	O8	0.963600	0.339700	0.950300
O91	O9	0.068300	0.976300	0.050200
H11	H1	0.053900	0.975300	0.106600
C11	C1	0.127700	0.653600	0.747800
C21	C2	0.175200	0.727300	0.808200
C31	C3	0.265300	0.768900	0.795100
H21	H2	0.296900	0.817800	0.834600
C41	C4	0.308600	0.739300	0.724800
H31	H3	0.368700	0.767400	0.717900
C51	C5	0.262700	0.668000	0.664900
C61	C6	0.172900	0.627500	0.676600
H41	H4	0.141600	0.581600	0.635900
C71	C7	0.035500	0.590500	0.755800
C81	C8	0.972200	0.604200	0.694800
H51	H5	0.986100	0.661600	0.651400
C91	C9	0.888200	0.532900	0.697500
C101	C10	0.867400	0.450400	0.763200
H61	H6	0.811200	0.404900	0.766500
C111	C11	0.930000	0.434900	0.824400
C121	C12	0.013700	0.504900	0.821200
H71	H7	0.055000	0.494800	0.862500
C131	C13	0.135200	0.772800	0.886200
C141	C14	0.311100	0.628400	0.590100
C151	C15	0.820300	0.550000	0.633400
C161	C16	0.908700	0.337100	0.893700
Ni31	Ni3	0.519050	0.337560	0.504860
Ni41	Ni4	0.305350	0.406550	0.461490
O101	O10	0.446200	0.304600	0.609500
O111	O11	0.308100	0.276000	0.557000
O121	O12	0.104400	0.147600	0.909100
O131	O13	0.235900	0.077500	0.966200
O141	O14	0.664300	0.129500	0.925500
O151	O15	0.755400	0.984500	0.861100
O161	O16	0.663300	0.764100	0.610600
O171	O17	0.536400	0.839700	0.549700
O181	O18	0.431700	0.476300	0.449800
H81	H8	0.446100	0.475300	0.393400
C171	C17	0.372300	0.153600	0.752200
C181	C18	0.324800	0.227300	0.691800
C191	C19	0.234700	0.268900	0.704900
H91	H9	0.203100	0.317800	0.665400
C201	C20	0.191400	0.239300	0.775200
H101	H10	0.131300	0.267400	0.782100
C211	C21	0.237300	0.168000	0.835100
C221	C22	0.327100	0.127500	0.823400
H111	H11	0.358400	0.081600	0.864100
C231	C23	0.464500	0.090500	0.744200
C241	C24	0.527800	0.104200	0.805200
H121	H12	0.513900	0.161600	0.848600
C251	C25	0.611800	0.032900	0.802500
C261	C26	0.632600	0.950400	0.736800
H131	H13	0.688800	0.904900	0.733500
C271	C27	0.570000	0.934900	0.675600
C281	C28	0.486300	0.004900	0.678800
H141	H14	0.445000	0.994800	0.637500
C291	C29	0.364800	0.272800	0.613800
C301	C30	0.188900	0.128400	0.909900
C311	C31	0.679700	0.050000	0.866600
C321	C32	0.591300	0.837100	0.606300
Ni51	Ni5	0.019050	0.162440	0.004860
Ni61	Ni6	0.805350	0.093450	0.961490
O191	O19	0.946200	0.195400	0.109500
O201	O20	0.808100	0.224000	0.057000
O211	O21	0.604400	0.352400	0.409100
O221	O22	0.735900	0.422500	0.466200
O231	O23	0.164300	0.370500	0.425500
O241	O24	0.255400	0.515500	0.361100
O251	O25	0.163300	0.735900	0.110600
O261	O26	0.036400	0.660300	0.049700
O271	O27	0.931700	0.023700	0.949800
H151	H15	0.946100	0.024700	0.893400
C331	C33	0.872300	0.346400	0.252200
C341	C34	0.824800	0.272700	0.191800
C351	C35	0.734700	0.231100	0.204900
H161	H16	0.703100	0.182200	0.165400
C361	C36	0.691400	0.260700	0.275200
H171	H17	0.631300	0.232600	0.282100
C371	C37	0.737300	0.332000	0.335100
C381	C38	0.827100	0.372500	0.323400
H181	H18	0.858400	0.418400	0.364100
C391	C39	0.964500	0.409500	0.244200
C401	C40	0.027800	0.395800	0.305200
H191	H19	0.013900	0.338400	0.348600
C411	C41	0.111800	0.467100	0.302500
C421	C42	0.132600	0.549600	0.236800
H201	H20	0.188800	0.595100	0.233500
C431	C43	0.070000	0.565100	0.175600
C441	C44	0.986300	0.495100	0.178800
H211	H21	0.945000	0.505200	0.137500
C451	C45	0.864800	0.227200	0.113800
C461	C46	0.688900	0.371600	0.409900
C471	C47	0.179700	0.450000	0.366600
C481	C48	0.091300	0.662900	0.106300
Ni71	Ni7	0.480950	0.662440	0.495140
Ni81	Ni8	0.694650	0.593450	0.538510
O281	O28	0.553800	0.695400	0.390500
O291	O29	0.691900	0.724000	0.443000
O301	O30	0.895600	0.852400	0.090900
O311	O31	0.764100	0.922500	0.033800
O321	O32	0.335700	0.870500	0.074500
O331	O33	0.244600	0.015500	0.138900
O341	O34	0.336700	0.235900	0.389400
O351	O35	0.463600	0.160300	0.450300
O361	O36	0.568300	0.523700	0.550200
H221	H22	0.553900	0.524700	0.606600
C491	C49	0.627700	0.846400	0.247800
C501	C50	0.675200	0.772700	0.308200
C511	C51	0.765300	0.731100	0.295100
H231	H23	0.796900	0.682200	0.334600
C521	C52	0.808600	0.760700	0.224800
H241	H24	0.868700	0.732600	0.217900
C531	C53	0.762700	0.832000	0.164900
C541	C54	0.672900	0.872500	0.176600
H251	H25	0.641600	0.918400	0.135900
C551	C55	0.535500	0.909500	0.255800
C561	C56	0.472200	0.895800	0.194800
H261	H26	0.486100	0.838400	0.151400
C571	C57	0.388200	0.967100	0.197500
C581	C58	0.367400	0.049600	0.263200
H271	H27	0.311200	0.095100	0.266500
C591	C59	0.430000	0.065100	0.324400
C601	C60	0.513700	0.995100	0.321200
H281	H28	0.555000	0.005200	0.362500
C611	C61	0.635200	0.727200	0.386200
C621	C62	0.811100	0.871600	0.090100
C631	C63	0.320300	0.950000	0.133400
C641	C64	0.408700	0.162900	0.393700
