data_VOCQAF_clean_PM
_symmetry_space_group_name_H-M	'P1'
_cell_length_a	14.082200
_cell_length_b	15.278100
_cell_length_c	18.537400
_cell_angle_alpha	90.000000
_cell_angle_beta	105.360000
_cell_angle_gamma	90.000000
_symmetry_Int_Tables_number 1

loop_
_symmetry_equiv_pos_as_xyz
'x,y,z'

loop_
_atom_site_label
_atom_site_type_symbol
_atom_site_fract_x
_atom_site_fract_y
_atom_site_fract_z
Co11	Co1	0.865790	0.627350	0.216860
O11	O1	0.901200	0.687900	0.319500
C11	C1	0.987500	0.705500	0.358500
C21	C2	0.775800	0.541300	0.954600
H11	H1	0.731800	0.572500	0.976100
C31	C3	0.999200	0.712700	0.442300
H21	H2	0.945600	0.698600	0.462400
C41	C4	0.856300	0.508200	0.001200
H31	H3	0.899900	0.475700	0.980200
C51	C5	0.883300	0.518700	0.085400
O21	O2	0.826800	0.558700	0.115500
O31	O3	0.964000	0.485300	0.118900
C61	C6	0.657500	0.575300	0.751300
H41	H4	0.607700	0.609800	0.719200
C71	C7	0.675100	0.584500	0.827800
H51	H5	0.637900	0.624000	0.848900
C81	C8	0.749200	0.533600	0.872600
C91	C9	0.709700	0.518500	0.721200
H61	H6	0.694300	0.513400	0.668300
C101	C10	0.799200	0.476800	0.838200
H71	H7	0.848400	0.441100	0.869400
N11	N1	0.783900	0.468000	0.763800
O41	O4	0.062500	0.715500	0.335600
N21	N2	0.234600	0.797600	0.678200
C111	C11	0.197000	0.789500	0.603400
H81	H8	0.230200	0.818200	0.571700
C121	C12	0.113500	0.742200	0.570200
C131	C13	0.066000	0.697200	0.615800
H91	H9	0.009600	0.661900	0.595500
C141	C14	0.084000	0.738600	0.487100
H101	H10	0.132200	0.757300	0.463000
C151	C15	0.187600	0.756800	0.721400
H111	H11	0.211300	0.762400	0.774200
C161	C16	0.105000	0.706400	0.692000
H121	H12	0.074200	0.677300	0.725100
Co21	Co2	0.365790	0.127350	0.216860
O51	O5	0.401200	0.187900	0.319500
C171	C17	0.487500	0.205500	0.358500
C181	C18	0.275800	0.041300	0.954600
H131	H13	0.231800	0.072500	0.976100
C191	C19	0.499200	0.212700	0.442300
H141	H14	0.445600	0.198600	0.462400
C201	C20	0.356300	0.008200	0.001200
H151	H15	0.399900	0.975700	0.980200
C211	C21	0.383300	0.018700	0.085400
O61	O6	0.326800	0.058700	0.115500
O71	O7	0.464000	0.985300	0.118900
C221	C22	0.157500	0.075300	0.751300
H161	H16	0.107700	0.109800	0.719200
C231	C23	0.175100	0.084500	0.827800
H171	H17	0.137900	0.124000	0.848900
C241	C24	0.249200	0.033600	0.872600
C251	C25	0.209700	0.018500	0.721200
H181	H18	0.194300	0.013400	0.668300
C261	C26	0.299200	0.976800	0.838200
H191	H19	0.348400	0.941100	0.869400
N31	N3	0.283900	0.968000	0.763800
O81	O8	0.562500	0.215500	0.335600
N41	N4	0.734600	0.297600	0.678200
C271	C27	0.697000	0.289500	0.603400
H201	H20	0.730200	0.318200	0.571700
C281	C28	0.613500	0.242200	0.570200
C291	C29	0.566000	0.197200	0.615800
H211	H21	0.509600	0.161900	0.595500
C301	C30	0.584000	0.238600	0.487100
H221	H22	0.632200	0.257300	0.463000
C311	C31	0.687600	0.256800	0.721400
H231	H23	0.711300	0.262400	0.774200
C321	C32	0.605000	0.206400	0.692000
H241	H24	0.574200	0.177300	0.725100
Co31	Co3	0.134210	0.627350	0.283140
O91	O9	0.098800	0.687900	0.180500
C331	C33	0.012500	0.705500	0.141500
C341	C34	0.224200	0.541300	0.545400
H251	H25	0.268200	0.572500	0.523900
C351	C35	0.000800	0.712700	0.057700
H261	H26	0.054400	0.698600	0.037600
C361	C36	0.143700	0.508200	0.498800
H271	H27	0.100100	0.475700	0.519800
C371	C37	0.116700	0.518700	0.414600
O101	O10	0.173200	0.558700	0.384500
O111	O11	0.036000	0.485300	0.381100
C381	C38	0.342500	0.575300	0.748700
H281	H28	0.392300	0.609800	0.780800
C391	C39	0.324900	0.584500	0.672200
H291	H29	0.362100	0.624000	0.651100
C401	C40	0.250800	0.533600	0.627400
C411	C41	0.290300	0.518500	0.778800
H301	H30	0.305700	0.513400	0.831700
C421	C42	0.200800	0.476800	0.661800
H311	H31	0.151600	0.441100	0.630600
N51	N5	0.216100	0.468000	0.736200
O121	O12	0.937500	0.715500	0.164400
N61	N6	0.765400	0.797600	0.821800
C431	C43	0.803000	0.789500	0.896600
H321	H32	0.769800	0.818200	0.928300
C441	C44	0.886500	0.742200	0.929800
C451	C45	0.934000	0.697200	0.884200
H331	H33	0.990400	0.661900	0.904500
C461	C46	0.916000	0.738600	0.012900
H341	H34	0.867800	0.757300	0.037000
C471	C47	0.812400	0.756800	0.778600
H351	H35	0.788700	0.762400	0.725800
C481	C48	0.895000	0.706400	0.808000
H361	H36	0.925800	0.677300	0.774900
Co41	Co4	0.634210	0.127350	0.283140
O131	O13	0.598800	0.187900	0.180500
C491	C49	0.512500	0.205500	0.141500
C501	C50	0.724200	0.041300	0.545400
H371	H37	0.768200	0.072500	0.523900
C511	C51	0.500800	0.212700	0.057700
H381	H38	0.554400	0.198600	0.037600
C521	C52	0.643700	0.008200	0.498800
H391	H39	0.600100	0.975700	0.519800
C531	C53	0.616700	0.018700	0.414600
O141	O14	0.673200	0.058700	0.384500
O151	O15	0.536000	0.985300	0.381100
C541	C54	0.842500	0.075300	0.748700
H401	H40	0.892300	0.109800	0.780800
C551	C55	0.824900	0.084500	0.672200
H411	H41	0.862100	0.124000	0.651100
C561	C56	0.750800	0.033600	0.627400
C571	C57	0.790300	0.018500	0.778800
H421	H42	0.805700	0.013400	0.831700
C581	C58	0.700800	0.976800	0.661800
H431	H43	0.651600	0.941100	0.630600
N71	N7	0.716100	0.968000	0.736200
O161	O16	0.437500	0.215500	0.164400
N81	N8	0.265400	0.297600	0.821800
C591	C59	0.303000	0.289500	0.896600
H441	H44	0.269800	0.318200	0.928300
C601	C60	0.386500	0.242200	0.929800
C611	C61	0.434000	0.197200	0.884200
H451	H45	0.490400	0.161900	0.904500
C621	C62	0.416000	0.238600	0.012900
H461	H46	0.367800	0.257300	0.037000
C631	C63	0.312400	0.256800	0.778600
H471	H47	0.288700	0.262400	0.725800
C641	C64	0.395000	0.206400	0.808000
H481	H48	0.425800	0.177300	0.774900
Co51	Co5	0.134210	0.372650	0.783140
O171	O17	0.098800	0.312100	0.680500
C651	C65	0.012500	0.294500	0.641500
C661	C66	0.224200	0.458700	0.045400
H491	H49	0.268200	0.427500	0.023900
C671	C67	0.000800	0.287300	0.557700
H501	H50	0.054400	0.301400	0.537600
C681	C68	0.143700	0.491800	0.998800
H511	H51	0.100100	0.524300	0.019800
C691	C69	0.116700	0.481300	0.914600
O181	O18	0.173200	0.441300	0.884500
O191	O19	0.036000	0.514700	0.881100
C701	C70	0.342500	0.424700	0.248700
H521	H52	0.392300	0.390200	0.280800
C711	C71	0.324900	0.415500	0.172200
H531	H53	0.362100	0.376000	0.151100
C721	C72	0.250800	0.466400	0.127400
C731	C73	0.290300	0.481500	0.278800
H541	H54	0.305700	0.486600	0.331700
C741	C74	0.200800	0.523200	0.161800
H551	H55	0.151600	0.558900	0.130600
N91	N9	0.216100	0.532000	0.236200
O201	O20	0.937500	0.284500	0.664400
N101	N10	0.765400	0.202400	0.321800
C751	C75	0.803000	0.210500	0.396600
H561	H56	0.769800	0.181800	0.428300
C761	C76	0.886500	0.257800	0.429800
C771	C77	0.934000	0.302800	0.384200
H571	H57	0.990400	0.338100	0.404500
C781	C78	0.916000	0.261400	0.512900
H581	H58	0.867800	0.242700	0.537000
C791	C79	0.812400	0.243200	0.278600
H591	H59	0.788700	0.237600	0.225800
C801	C80	0.895000	0.293600	0.308000
H601	H60	0.925800	0.322700	0.274900
Co61	Co6	0.634210	0.872650	0.783140
O211	O21	0.598800	0.812100	0.680500
C811	C81	0.512500	0.794500	0.641500
C821	C82	0.724200	0.958700	0.045400
H611	H61	0.768200	0.927500	0.023900
C831	C83	0.500800	0.787300	0.557700
H621	H62	0.554400	0.801400	0.537600
C841	C84	0.643700	0.991800	0.998800
H631	H63	0.600100	0.024300	0.019800
C851	C85	0.616700	0.981300	0.914600
O221	O22	0.673200	0.941300	0.884500
O231	O23	0.536000	0.014700	0.881100
C861	C86	0.842500	0.924700	0.248700
H641	H64	0.892300	0.890200	0.280800
C871	C87	0.824900	0.915500	0.172200
H651	H65	0.862100	0.876000	0.151100
C881	C88	0.750800	0.966400	0.127400
C891	C89	0.790300	0.981500	0.278800
H661	H66	0.805700	0.986600	0.331700
C901	C90	0.700800	0.023200	0.161800
H671	H67	0.651600	0.058900	0.130600
N111	N11	0.716100	0.032000	0.236200
O241	O24	0.437500	0.784500	0.664400
N121	N12	0.265400	0.702400	0.321800
C911	C91	0.303000	0.710500	0.396600
H681	H68	0.269800	0.681800	0.428300
C921	C92	0.386500	0.757800	0.429800
C931	C93	0.434000	0.802800	0.384200
H691	H69	0.490400	0.838100	0.404500
C941	C94	0.416000	0.761400	0.512900
H701	H70	0.367800	0.742700	0.537000
C951	C95	0.312400	0.743200	0.278600
H711	H71	0.288700	0.737600	0.225800
C961	C96	0.395000	0.793600	0.308000
H721	H72	0.425800	0.822700	0.274900
Co71	Co7	0.865790	0.372650	0.716860
O251	O25	0.901200	0.312100	0.819500
C971	C97	0.987500	0.294500	0.858500
C981	C98	0.775800	0.458700	0.454600
H731	H73	0.731800	0.427500	0.476100
C991	C99	0.999200	0.287300	0.942300
H741	H74	0.945600	0.301400	0.962400
C1001	C100	0.856300	0.491800	0.501200
H751	H75	0.899900	0.524300	0.480200
C1011	C101	0.883300	0.481300	0.585400
O261	O26	0.826800	0.441300	0.615500
O271	O27	0.964000	0.514700	0.618900
C1021	C102	0.657500	0.424700	0.251300
H761	H76	0.607700	0.390200	0.219200
C1031	C103	0.675100	0.415500	0.327800
H771	H77	0.637900	0.376000	0.348900
C1041	C104	0.749200	0.466400	0.372600
C1051	C105	0.709700	0.481500	0.221200
H781	H78	0.694300	0.486600	0.168300
C1061	C106	0.799200	0.523200	0.338200
H791	H79	0.848400	0.558900	0.369400
N131	N13	0.783900	0.532000	0.263800
O281	O28	0.062500	0.284500	0.835600
N141	N14	0.234600	0.202400	0.178200
C1071	C107	0.197000	0.210500	0.103400
H801	H80	0.230200	0.181800	0.071700
C1081	C108	0.113500	0.257800	0.070200
C1091	C109	0.066000	0.302800	0.115800
H811	H81	0.009600	0.338100	0.095500
C1101	C110	0.084000	0.261400	0.987100
H821	H82	0.132200	0.242700	0.963000
C1111	C111	0.187600	0.243200	0.221400
H831	H83	0.211300	0.237600	0.274200
C1121	C112	0.105000	0.293600	0.192000
H841	H84	0.074200	0.322700	0.225100
Co81	Co8	0.365790	0.872650	0.716860
O291	O29	0.401200	0.812100	0.819500
C1131	C113	0.487500	0.794500	0.858500
C1141	C114	0.275800	0.958700	0.454600
H851	H85	0.231800	0.927500	0.476100
C1151	C115	0.499200	0.787300	0.942300
H861	H86	0.445600	0.801400	0.962400
C1161	C116	0.356300	0.991800	0.501200
H871	H87	0.399900	0.024300	0.480200
C1171	C117	0.383300	0.981300	0.585400
O301	O30	0.326800	0.941300	0.615500
O311	O31	0.464000	0.014700	0.618900
C1181	C118	0.157500	0.924700	0.251300
H881	H88	0.107700	0.890200	0.219200
C1191	C119	0.175100	0.915500	0.327800
H891	H89	0.137900	0.876000	0.348900
C1201	C120	0.249200	0.966400	0.372600
C1211	C121	0.209700	0.981500	0.221200
H901	H90	0.194300	0.986600	0.168300
C1221	C122	0.299200	0.023200	0.338200
H911	H91	0.348400	0.058900	0.369400
N151	N15	0.283900	0.032000	0.263800
O321	O32	0.562500	0.784500	0.835600
N161	N16	0.734600	0.702400	0.178200
C1231	C123	0.697000	0.710500	0.103400
H921	H92	0.730200	0.681800	0.071700
C1241	C124	0.613500	0.757800	0.070200
C1251	C125	0.566000	0.802800	0.115800
H931	H93	0.509600	0.838100	0.095500
C1261	C126	0.584000	0.761400	0.987100
H941	H94	0.632200	0.742700	0.963000
C1271	C127	0.687600	0.743200	0.221400
H951	H95	0.711300	0.737600	0.274200
C1281	C128	0.605000	0.793600	0.192000
H961	H96	0.574200	0.822700	0.225100
O331	O33	0.000000	0.553000	0.250000
H971	H97	0.000000	0.490800	0.250000
O341	O34	0.500000	0.053000	0.250000
H981	H98	0.500000	0.990800	0.250000
O351	O35	0.000000	0.447000	0.750000
H991	H99	0.000000	0.509200	0.750000
O361	O36	0.500000	0.947000	0.750000
H1001	H100	0.500000	0.009200	0.750000
