data_VODQIP_clean_PM
_symmetry_space_group_name_H-M	'P1'
_cell_length_a	14.883000
_cell_length_b	16.795000
_cell_length_c	17.490000
_cell_angle_alpha	93.192000
_cell_angle_beta	114.063000
_cell_angle_gamma	103.782000
_symmetry_Int_Tables_number 1

loop_
_symmetry_equiv_pos_as_xyz
'x,y,z'

loop_
_atom_site_label
_atom_site_type_symbol
_atom_site_fract_x
_atom_site_fract_y
_atom_site_fract_z
Nd11	Nd1	0.124500	0.965450	0.579070
Nd21	Nd2	0.126110	0.465110	0.003670
Nd31	Nd3	0.875500	0.034550	0.420930
Nd41	Nd4	0.873890	0.534890	0.996330
H11	H1	0.253700	0.004200	0.377200
H21	H2	0.305200	0.009700	0.268200
H31	H3	0.037900	0.045600	0.114700
H41	H4	0.989300	0.042900	0.222500
H51	H5	0.335600	0.914300	0.110900
H61	H6	0.306300	0.771700	0.084800
H71	H7	0.001100	0.737200	0.994900
H81	H8	0.031200	0.881200	0.017700
H91	H9	0.006000	0.237700	0.530800
H101	H10	0.034800	0.378600	0.520600
H111	H11	0.338700	0.404200	0.605800
H121	H12	0.306500	0.264100	0.615600
H131	H13	0.301900	0.497200	0.439300
H141	H14	0.244400	0.494300	0.292900
H151	H15	0.970300	0.508800	0.270200
H161	H16	0.029200	0.515000	0.418600
H171	H17	0.455300	0.944600	0.576700
H181	H18	0.572100	0.878700	0.568400
H191	H19	0.352300	0.661600	0.487800
H201	H20	0.237600	0.729300	0.495900
H211	H21	0.720500	0.788400	0.686900
H221	H22	0.790900	0.748600	0.819900
H231	H23	0.575400	0.524600	0.722800
H241	H24	0.507900	0.566000	0.590700
H251	H25	0.746300	0.995800	0.622800
H261	H26	0.694800	0.990300	0.731800
H271	H27	0.962100	0.954400	0.885300
H281	H28	0.010700	0.957100	0.777500
H291	H29	0.664400	0.085700	0.889100
H301	H30	0.693700	0.228300	0.915200
H311	H31	0.998900	0.262800	0.005100
H321	H32	0.968800	0.118800	0.982300
H331	H33	0.994000	0.762300	0.469200
H341	H34	0.965200	0.621400	0.479400
H351	H35	0.661300	0.595800	0.394200
H361	H36	0.693500	0.735900	0.384400
H371	H37	0.698100	0.502800	0.560700
H381	H38	0.755600	0.505700	0.707100
H391	H39	0.029700	0.491200	0.729800
H401	H40	0.970800	0.485000	0.581400
H411	H41	0.544700	0.055400	0.423300
H421	H42	0.427900	0.121300	0.431600
H431	H43	0.647700	0.338400	0.512200
H441	H44	0.762400	0.270700	0.504100
H451	H45	0.279500	0.211600	0.313100
H461	H46	0.209100	0.251400	0.180100
H471	H47	0.424600	0.475400	0.277200
H481	H48	0.492100	0.434000	0.409300
C11	C1	0.078600	0.014400	0.379900
C21	C2	0.116000	0.021900	0.309100
C31	C3	0.210600	0.012500	0.324000
C41	C4	0.241100	0.015500	0.258800
C51	C5	0.176500	0.027200	0.180100
C61	C6	0.081700	0.037400	0.167600
C71	C7	0.052500	0.035300	0.231300
C81	C8	0.186800	0.909800	0.069300
C91	C9	0.269100	0.878800	0.088200
C101	C10	0.251100	0.793600	0.072800
C111	C11	0.150800	0.739100	0.039400
C121	C12	0.067900	0.772200	0.018300
C131	C13	0.085900	0.858400	0.032600
C141	C14	0.134200	0.645500	0.029500
C151	C15	0.136900	0.144100	0.575300
C161	C16	0.153700	0.236900	0.572500
C171	C17	0.072100	0.271100	0.545300
C181	C18	0.089100	0.355200	0.539700
C191	C19	0.189500	0.403400	0.563300
C201	C20	0.272400	0.371100	0.591100
C211	C21	0.252100	0.287300	0.595900
C221	C22	0.169600	0.506900	0.441700
C231	C23	0.236000	0.500300	0.405900
C241	C24	0.201100	0.498300	0.318100
C251	C25	0.103400	0.502200	0.269000
C261	C26	0.036800	0.507400	0.304000
C271	C27	0.072300	0.510500	0.393200
C281	C28	0.066800	0.499400	0.172800
C291	C29	0.263600	0.884900	0.552400
C301	C30	0.337000	0.843200	0.539900
C311	C31	0.434800	0.887300	0.559500
C321	C32	0.504900	0.848100	0.554300
C331	C33	0.473600	0.763200	0.527900
C341	C34	0.373800	0.718800	0.506200
C351	C35	0.305400	0.759300	0.511600
C361	C36	0.610100	0.680500	0.626000
C371	C37	0.692500	0.735300	0.694300
C381	C38	0.734500	0.712200	0.774600
C391	C39	0.688500	0.631900	0.784600
C401	C40	0.604700	0.577400	0.715800
C411	C41	0.564500	0.602000	0.636200
C421	C42	0.737800	0.604200	0.866300
C431	C43	0.921400	0.985600	0.620100
C441	C44	0.884000	0.978100	0.690900
C451	C45	0.789400	0.987500	0.676000
C461	C46	0.758900	0.984500	0.741200
C471	C47	0.823500	0.972800	0.819900
C481	C48	0.918300	0.962600	0.832400
C491	C49	0.947500	0.964700	0.768700
C501	C50	0.813200	0.090200	0.930700
C511	C51	0.730900	0.121200	0.911800
C521	C52	0.748900	0.206400	0.927200
C531	C53	0.849200	0.260900	0.960600
C541	C54	0.932100	0.227800	0.981700
C551	C55	0.914100	0.141600	0.967400
C561	C56	0.865800	0.354500	0.970500
C571	C57	0.863100	0.855900	0.424700
C581	C58	0.846300	0.763100	0.427500
C591	C59	0.927900	0.728900	0.454700
C601	C60	0.910900	0.644800	0.460300
C611	C61	0.810500	0.596600	0.436700
C621	C62	0.727600	0.628900	0.408900
C631	C63	0.747900	0.712700	0.404100
C641	C64	0.830400	0.493100	0.558300
C651	C65	0.764000	0.499700	0.594100
C661	C66	0.798900	0.501700	0.681900
C671	C67	0.896600	0.497800	0.731000
C681	C68	0.963200	0.492600	0.696000
C691	C69	0.927700	0.489500	0.606800
C701	C70	0.933200	0.500600	0.827200
C711	C71	0.736400	0.115100	0.447600
C721	C72	0.663000	0.156800	0.460100
C731	C73	0.565200	0.112700	0.440500
C741	C74	0.495100	0.151900	0.445700
C751	C75	0.526400	0.236800	0.472100
C761	C76	0.626200	0.281200	0.493800
C771	C77	0.694600	0.240700	0.488400
C781	C78	0.389900	0.319500	0.374000
C791	C79	0.307500	0.264700	0.305700
C801	C80	0.265500	0.287800	0.225400
C811	C81	0.311500	0.368100	0.215400
C821	C82	0.395300	0.422600	0.284200
C831	C83	0.435500	0.398000	0.363800
C841	C84	0.262200	0.395800	0.133700
S11	S1	0.208300	0.019300	0.093180
S21	S2	0.211000	0.510330	0.552800
S31	S3	0.562900	0.710800	0.525740
S41	S4	0.791700	0.980700	0.906820
S51	S5	0.789000	0.489670	0.447200
S61	S6	0.437100	0.289200	0.474260
O11	O1	0.137900	0.002500	0.449200
O21	O2	0.987600	0.018400	0.357300
O31	O3	0.134100	0.045400	0.022100
O41	O4	0.317600	0.058200	0.123500
O51	O5	0.208900	0.618100	0.036400
O61	O6	0.047000	0.598200	0.013300
O71	O7	0.047000	0.096200	0.534100
O81	O8	0.210400	0.119000	0.618600
O91	O9	0.320000	0.549800	0.595100
O101	O10	0.143000	0.543100	0.576300
O111	O11	0.975100	0.503000	0.134100
O121	O12	0.128800	0.494500	0.143800
O131	O13	0.169100	0.849500	0.515900
O141	O14	0.297800	0.954300	0.600500
O151	O15	0.646100	0.770800	0.521700
O161	O16	0.507900	0.636000	0.462700
O171	O17	0.824900	0.651100	0.921500
O181	O18	0.698600	0.534300	0.879400
O191	O19	0.862100	0.997500	0.550800
O201	O20	0.012400	0.981600	0.642700
O211	O21	0.865900	0.954600	0.977900
O221	O22	0.682400	0.941800	0.876500
O231	O23	0.791100	0.381900	0.963600
O241	O24	0.953000	0.401800	0.986700
O251	O25	0.953000	0.903800	0.465900
O261	O26	0.789600	0.881000	0.381400
O271	O27	0.680000	0.450200	0.404900
O281	O28	0.857000	0.456900	0.423700
O291	O29	0.024900	0.497000	0.865900
O301	O30	0.871200	0.505500	0.856200
O311	O31	0.830900	0.150500	0.484100
O321	O32	0.702200	0.045700	0.399500
O331	O33	0.353900	0.229200	0.478300
O341	O34	0.492100	0.364000	0.537300
O351	O35	0.175100	0.348900	0.078500
O361	O36	0.301400	0.465700	0.120600
