data_VOGPEO_clean_PM
_symmetry_space_group_name_H-M	'P1'
_cell_length_a	24.831900
_cell_length_b	33.532000
_cell_length_c	18.709900
_cell_angle_alpha	90.000000
_cell_angle_beta	90.000000
_cell_angle_gamma	90.000000
_symmetry_Int_Tables_number 1

loop_
_symmetry_equiv_pos_as_xyz
'x,y,z'

loop_
_atom_site_label
_atom_site_type_symbol
_atom_site_fract_x
_atom_site_fract_y
_atom_site_fract_z
Cu11	Cu1	0.790210	0.732360	0.534750
O11	O1	0.822020	0.728960	0.439800
O21	O2	0.753360	0.757920	0.380400
O31	O3	0.958000	0.570600	0.370700
O41	O4	0.818470	0.786460	0.545300
O51	O5	0.750820	0.816410	0.486200
O61	O6	0.945090	0.865010	0.677600
O71	O7	0.943780	0.931680	0.676400
O81	O8	0.611400	0.970400	0.515700
C11	C1	0.798400	0.741110	0.383800
C21	C2	0.825800	0.732230	0.314100
C31	C3	0.875600	0.711640	0.311800
H11	H1	0.892000	0.705200	0.355000
C41	C4	0.951300	0.642400	0.300900
H21	H2	0.918700	0.632700	0.318000
C51	C5	0.794300	0.816350	0.522300
C61	C6	0.816500	0.856720	0.541200
C71	C7	0.790900	0.891300	0.518600
H31	H3	0.761100	0.889300	0.488600
C81	C8	0.808400	0.928500	0.539700
C91	C9	0.853300	0.930110	0.583000
H41	H4	0.866000	0.954900	0.597500
C101	C10	0.880000	0.896370	0.605800
C111	C11	0.860800	0.859430	0.584000
H51	H5	0.878300	0.836300	0.598700
C121	C12	0.926800	0.898560	0.656800
C131	C13	0.778400	0.964980	0.518700
C141	C14	0.722100	0.966370	0.519400
H61	H6	0.702700	0.944000	0.533400
Cu21	Cu2	0.290210	0.232360	0.534750
O91	O9	0.322020	0.228960	0.439800
O101	O10	0.253360	0.257920	0.380400
O111	O11	0.458000	0.070600	0.370700
O121	O12	0.318470	0.286460	0.545300
O131	O13	0.250820	0.316410	0.486200
O141	O14	0.445090	0.365010	0.677600
O151	O15	0.443780	0.431680	0.676400
O161	O16	0.111400	0.470400	0.515700
C151	C15	0.298400	0.241110	0.383800
C161	C16	0.325800	0.232230	0.314100
C171	C17	0.375600	0.211640	0.311800
H71	H7	0.392000	0.205200	0.355000
C181	C18	0.451300	0.142400	0.300900
H81	H8	0.418700	0.132700	0.318000
C191	C19	0.294300	0.316350	0.522300
C201	C20	0.316500	0.356720	0.541200
C211	C21	0.290900	0.391300	0.518600
H91	H9	0.261100	0.389300	0.488600
C221	C22	0.308400	0.428500	0.539700
C231	C23	0.353300	0.430110	0.583000
H101	H10	0.366000	0.454900	0.597500
C241	C24	0.380000	0.396370	0.605800
C251	C25	0.360800	0.359430	0.584000
H111	H11	0.378300	0.336300	0.598700
C261	C26	0.426800	0.398560	0.656800
C271	C27	0.278400	0.464980	0.518700
C281	C28	0.222100	0.466370	0.519400
H121	H12	0.202700	0.444000	0.533400
Cu31	Cu3	0.209790	0.267640	0.034750
O171	O17	0.177980	0.271040	0.939800
O181	O18	0.246640	0.242080	0.880400
O191	O19	0.042000	0.429400	0.870700
O201	O20	0.181530	0.213540	0.045300
O211	O21	0.249180	0.183590	0.986200
O221	O22	0.054910	0.134990	0.177600
O231	O23	0.056220	0.068320	0.176400
O241	O24	0.388600	0.029600	0.015700
C291	C29	0.201600	0.258890	0.883800
C301	C30	0.174200	0.267770	0.814100
C311	C31	0.124400	0.288360	0.811800
H131	H13	0.108000	0.294800	0.855000
C321	C32	0.048700	0.357600	0.800900
H141	H14	0.081300	0.367300	0.818000
C331	C33	0.205700	0.183650	0.022300
C341	C34	0.183500	0.143280	0.041200
C351	C35	0.209100	0.108700	0.018600
H151	H15	0.238900	0.110700	0.988600
C361	C36	0.191600	0.071500	0.039700
C371	C37	0.146700	0.069890	0.083000
H161	H16	0.134000	0.045100	0.097500
C381	C38	0.120000	0.103630	0.105800
C391	C39	0.139200	0.140570	0.084000
H171	H17	0.121700	0.163700	0.098700
C401	C40	0.073200	0.101440	0.156800
C411	C41	0.221600	0.035020	0.018700
C421	C42	0.277900	0.033630	0.019400
H181	H18	0.297300	0.056000	0.033400
Cu41	Cu4	0.709790	0.767640	0.034750
O251	O25	0.677980	0.771040	0.939800
O261	O26	0.746640	0.742080	0.880400
O271	O27	0.542000	0.929400	0.870700
O281	O28	0.681530	0.713540	0.045300
O291	O29	0.749180	0.683590	0.986200
O301	O30	0.554910	0.634990	0.177600
O311	O31	0.556220	0.568320	0.176400
O321	O32	0.888600	0.529600	0.015700
C431	C43	0.701600	0.758890	0.883800
C441	C44	0.674200	0.767770	0.814100
C451	C45	0.624400	0.788360	0.811800
H191	H19	0.608000	0.794800	0.855000
C461	C46	0.548700	0.857600	0.800900
H201	H20	0.581300	0.867300	0.818000
C471	C47	0.705700	0.683650	0.022300
C481	C48	0.683500	0.643280	0.041200
C491	C49	0.709100	0.608700	0.018600
H211	H21	0.738900	0.610700	0.988600
C501	C50	0.691600	0.571500	0.039700
C511	C51	0.646700	0.569890	0.083000
H221	H22	0.634000	0.545100	0.097500
C521	C52	0.620000	0.603630	0.105800
C531	C53	0.639200	0.640570	0.084000
H231	H23	0.621700	0.663700	0.098700
C541	C54	0.573200	0.601440	0.156800
C551	C55	0.721600	0.535020	0.018700
C561	C56	0.777900	0.533630	0.019400
H241	H24	0.797300	0.556000	0.033400
Cu51	Cu5	0.209790	0.732360	0.965250
O331	O33	0.177980	0.728960	0.060200
O341	O34	0.246640	0.757920	0.119600
O351	O35	0.042000	0.570600	0.129300
O361	O36	0.181530	0.786460	0.954700
O371	O37	0.249180	0.816410	0.013800
O381	O38	0.054910	0.865010	0.822400
O391	O39	0.056220	0.931680	0.823600
O401	O40	0.388600	0.970400	0.984300
C571	C57	0.201600	0.741110	0.116200
C581	C58	0.174200	0.732230	0.185900
C591	C59	0.124400	0.711640	0.188200
H251	H25	0.108000	0.705200	0.145000
C601	C60	0.048700	0.642400	0.199100
H261	H26	0.081300	0.632700	0.182000
C611	C61	0.205700	0.816350	0.977700
C621	C62	0.183500	0.856720	0.958800
C631	C63	0.209100	0.891300	0.981400
H271	H27	0.238900	0.889300	0.011400
C641	C64	0.191600	0.928500	0.960300
C651	C65	0.146700	0.930110	0.917000
H281	H28	0.134000	0.954900	0.902500
C661	C66	0.120000	0.896370	0.894200
C671	C67	0.139200	0.859430	0.916000
H291	H29	0.121700	0.836300	0.901300
C681	C68	0.073200	0.898560	0.843200
C691	C69	0.221600	0.964980	0.981300
C701	C70	0.277900	0.966370	0.980600
H301	H30	0.297300	0.944000	0.966600
Cu61	Cu6	0.709790	0.232360	0.965250
O411	O41	0.677980	0.228960	0.060200
O421	O42	0.746640	0.257920	0.119600
O431	O43	0.542000	0.070600	0.129300
O441	O44	0.681530	0.286460	0.954700
O451	O45	0.749180	0.316410	0.013800
O461	O46	0.554910	0.365010	0.822400
O471	O47	0.556220	0.431680	0.823600
O481	O48	0.888600	0.470400	0.984300
C711	C71	0.701600	0.241110	0.116200
C721	C72	0.674200	0.232230	0.185900
C731	C73	0.624400	0.211640	0.188200
H311	H31	0.608000	0.205200	0.145000
C741	C74	0.548700	0.142400	0.199100
H321	H32	0.581300	0.132700	0.182000
C751	C75	0.705700	0.316350	0.977700
C761	C76	0.683500	0.356720	0.958800
C771	C77	0.709100	0.391300	0.981400
H331	H33	0.738900	0.389300	0.011400
C781	C78	0.691600	0.428500	0.960300
C791	C79	0.646700	0.430110	0.917000
H341	H34	0.634000	0.454900	0.902500
C801	C80	0.620000	0.396370	0.894200
C811	C81	0.639200	0.359430	0.916000
H351	H35	0.621700	0.336300	0.901300
C821	C82	0.573200	0.398560	0.843200
C831	C83	0.721600	0.464980	0.981300
C841	C84	0.777900	0.466370	0.980600
H361	H36	0.797300	0.444000	0.966600
Cu71	Cu7	0.790210	0.267640	0.465250
O491	O49	0.822020	0.271040	0.560200
O501	O50	0.753360	0.242080	0.619600
O511	O51	0.958000	0.429400	0.629300
O521	O52	0.818470	0.213540	0.454700
O531	O53	0.750820	0.183590	0.513800
O541	O54	0.945090	0.134990	0.322400
O551	O55	0.943780	0.068320	0.323600
O561	O56	0.611400	0.029600	0.484300
C851	C85	0.798400	0.258890	0.616200
C861	C86	0.825800	0.267770	0.685900
C871	C87	0.875600	0.288360	0.688200
H371	H37	0.892000	0.294800	0.645000
C881	C88	0.951300	0.357600	0.699100
H381	H38	0.918700	0.367300	0.682000
C891	C89	0.794300	0.183650	0.477700
C901	C90	0.816500	0.143280	0.458800
C911	C91	0.790900	0.108700	0.481400
H391	H39	0.761100	0.110700	0.511400
C921	C92	0.808400	0.071500	0.460300
C931	C93	0.853300	0.069890	0.417000
H401	H40	0.866000	0.045100	0.402500
C941	C94	0.880000	0.103630	0.394200
C951	C95	0.860800	0.140570	0.416000
H411	H41	0.878300	0.163700	0.401300
C961	C96	0.926800	0.101440	0.343200
C971	C97	0.778400	0.035020	0.481300
C981	C98	0.722100	0.033630	0.480600
H421	H42	0.702700	0.056000	0.466600
Cu81	Cu8	0.290210	0.767640	0.465250
O571	O57	0.322020	0.771040	0.560200
O581	O58	0.253360	0.742080	0.619600
O591	O59	0.458000	0.929400	0.629300
O601	O60	0.318470	0.713540	0.454700
O611	O61	0.250820	0.683590	0.513800
O621	O62	0.445090	0.634990	0.322400
O631	O63	0.443780	0.568320	0.323600
O641	O64	0.111400	0.529600	0.484300
C991	C99	0.298400	0.758890	0.616200
C1001	C100	0.325800	0.767770	0.685900
C1011	C101	0.375600	0.788360	0.688200
H431	H43	0.392000	0.794800	0.645000
C1021	C102	0.451300	0.857600	0.699100
H441	H44	0.418700	0.867300	0.682000
C1031	C103	0.294300	0.683650	0.477700
C1041	C104	0.316500	0.643280	0.458800
C1051	C105	0.290900	0.608700	0.481400
H451	H45	0.261100	0.610700	0.511400
C1061	C106	0.308400	0.571500	0.460300
C1071	C107	0.353300	0.569890	0.417000
H461	H46	0.366000	0.545100	0.402500
C1081	C108	0.380000	0.603630	0.394200
C1091	C109	0.360800	0.640570	0.416000
H471	H47	0.378300	0.663700	0.401300
C1101	C110	0.426800	0.601440	0.343200
C1111	C111	0.278400	0.535020	0.481300
C1121	C112	0.222100	0.533630	0.480600
H481	H48	0.202700	0.556000	0.466600
Cu91	Cu9	0.209790	0.267640	0.465250
O651	O65	0.177980	0.271040	0.560200
O661	O66	0.246640	0.242080	0.619600
O671	O67	0.042000	0.429400	0.629300
O681	O68	0.181530	0.213540	0.454700
O691	O69	0.249180	0.183590	0.513800
O701	O70	0.054910	0.134990	0.322400
O711	O71	0.056220	0.068320	0.323600
O721	O72	0.388600	0.029600	0.484300
C1131	C113	0.201600	0.258890	0.616200
C1141	C114	0.174200	0.267770	0.685900
C1151	C115	0.124400	0.288360	0.688200
H491	H49	0.108000	0.294800	0.645000
C1161	C116	0.048700	0.357600	0.699100
H501	H50	0.081300	0.367300	0.682000
C1171	C117	0.205700	0.183650	0.477700
C1181	C118	0.183500	0.143280	0.458800
C1191	C119	0.209100	0.108700	0.481400
H511	H51	0.238900	0.110700	0.511400
C1201	C120	0.191600	0.071500	0.460300
C1211	C121	0.146700	0.069890	0.417000
H521	H52	0.134000	0.045100	0.402500
C1221	C122	0.120000	0.103630	0.394200
C1231	C123	0.139200	0.140570	0.416000
H531	H53	0.121700	0.163700	0.401300
C1241	C124	0.073200	0.101440	0.343200
C1251	C125	0.221600	0.035020	0.481300
C1261	C126	0.277900	0.033630	0.480600
H541	H54	0.297300	0.056000	0.466600
Cu101	Cu10	0.709790	0.767640	0.465250
O731	O73	0.677980	0.771040	0.560200
O741	O74	0.746640	0.742080	0.619600
O751	O75	0.542000	0.929400	0.629300
O761	O76	0.681530	0.713540	0.454700
O771	O77	0.749180	0.683590	0.513800
O781	O78	0.554910	0.634990	0.322400
O791	O79	0.556220	0.568320	0.323600
O801	O80	0.888600	0.529600	0.484300
C1271	C127	0.701600	0.758890	0.616200
C1281	C128	0.674200	0.767770	0.685900
C1291	C129	0.624400	0.788360	0.688200
H551	H55	0.608000	0.794800	0.645000
C1301	C130	0.548700	0.857600	0.699100
H561	H56	0.581300	0.867300	0.682000
C1311	C131	0.705700	0.683650	0.477700
C1321	C132	0.683500	0.643280	0.458800
C1331	C133	0.709100	0.608700	0.481400
H571	H57	0.738900	0.610700	0.511400
C1341	C134	0.691600	0.571500	0.460300
C1351	C135	0.646700	0.569890	0.417000
H581	H58	0.634000	0.545100	0.402500
C1361	C136	0.620000	0.603630	0.394200
C1371	C137	0.639200	0.640570	0.416000
H591	H59	0.621700	0.663700	0.401300
C1381	C138	0.573200	0.601440	0.343200
C1391	C139	0.721600	0.535020	0.481300
C1401	C140	0.777900	0.533630	0.480600
H601	H60	0.797300	0.556000	0.466600
Cu111	Cu11	0.790210	0.732360	0.965250
O811	O81	0.822020	0.728960	0.060200
O821	O82	0.753360	0.757920	0.119600
O831	O83	0.958000	0.570600	0.129300
O841	O84	0.818470	0.786460	0.954700
O851	O85	0.750820	0.816410	0.013800
O861	O86	0.945090	0.865010	0.822400
O871	O87	0.943780	0.931680	0.823600
O881	O88	0.611400	0.970400	0.984300
C1411	C141	0.798400	0.741110	0.116200
C1421	C142	0.825800	0.732230	0.185900
C1431	C143	0.875600	0.711640	0.188200
H611	H61	0.892000	0.705200	0.145000
C1441	C144	0.951300	0.642400	0.199100
H621	H62	0.918700	0.632700	0.182000
C1451	C145	0.794300	0.816350	0.977700
C1461	C146	0.816500	0.856720	0.958800
C1471	C147	0.790900	0.891300	0.981400
H631	H63	0.761100	0.889300	0.011400
C1481	C148	0.808400	0.928500	0.960300
C1491	C149	0.853300	0.930110	0.917000
H641	H64	0.866000	0.954900	0.902500
C1501	C150	0.880000	0.896370	0.894200
C1511	C151	0.860800	0.859430	0.916000
H651	H65	0.878300	0.836300	0.901300
C1521	C152	0.926800	0.898560	0.843200
C1531	C153	0.778400	0.964980	0.981300
C1541	C154	0.722100	0.966370	0.980600
H661	H66	0.702700	0.944000	0.966600
Cu121	Cu12	0.290210	0.232360	0.965250
O891	O89	0.322020	0.228960	0.060200
O901	O90	0.253360	0.257920	0.119600
O911	O91	0.458000	0.070600	0.129300
O921	O92	0.318470	0.286460	0.954700
O931	O93	0.250820	0.316410	0.013800
O941	O94	0.445090	0.365010	0.822400
O951	O95	0.443780	0.431680	0.823600
O961	O96	0.111400	0.470400	0.984300
C1551	C155	0.298400	0.241110	0.116200
C1561	C156	0.325800	0.232230	0.185900
C1571	C157	0.375600	0.211640	0.188200
H671	H67	0.392000	0.205200	0.145000
C1581	C158	0.451300	0.142400	0.199100
H681	H68	0.418700	0.132700	0.182000
C1591	C159	0.294300	0.316350	0.977700
C1601	C160	0.316500	0.356720	0.958800
C1611	C161	0.290900	0.391300	0.981400
H691	H69	0.261100	0.389300	0.011400
C1621	C162	0.308400	0.428500	0.960300
C1631	C163	0.353300	0.430110	0.917000
H701	H70	0.366000	0.454900	0.902500
C1641	C164	0.380000	0.396370	0.894200
C1651	C165	0.360800	0.359430	0.916000
H711	H71	0.378300	0.336300	0.901300
C1661	C166	0.426800	0.398560	0.843200
C1671	C167	0.278400	0.464980	0.981300
C1681	C168	0.222100	0.466370	0.980600
H721	H72	0.202700	0.444000	0.966600
Cu131	Cu13	0.790210	0.267640	0.034750
O971	O97	0.822020	0.271040	0.939800
O981	O98	0.753360	0.242080	0.880400
O991	O99	0.958000	0.429400	0.870700
O1001	O100	0.818470	0.213540	0.045300
O1011	O101	0.750820	0.183590	0.986200
O1021	O102	0.945090	0.134990	0.177600
O1031	O103	0.943780	0.068320	0.176400
O1041	O104	0.611400	0.029600	0.015700
C1691	C169	0.798400	0.258890	0.883800
C1701	C170	0.825800	0.267770	0.814100
C1711	C171	0.875600	0.288360	0.811800
H731	H73	0.892000	0.294800	0.855000
C1721	C172	0.951300	0.357600	0.800900
H741	H74	0.918700	0.367300	0.818000
C1731	C173	0.794300	0.183650	0.022300
C1741	C174	0.816500	0.143280	0.041200
C1751	C175	0.790900	0.108700	0.018600
H751	H75	0.761100	0.110700	0.988600
C1761	C176	0.808400	0.071500	0.039700
C1771	C177	0.853300	0.069890	0.083000
H761	H76	0.866000	0.045100	0.097500
C1781	C178	0.880000	0.103630	0.105800
C1791	C179	0.860800	0.140570	0.084000
H771	H77	0.878300	0.163700	0.098700
C1801	C180	0.926800	0.101440	0.156800
C1811	C181	0.778400	0.035020	0.018700
C1821	C182	0.722100	0.033630	0.019400
H781	H78	0.702700	0.056000	0.033400
Cu141	Cu14	0.290210	0.767640	0.034750
O1051	O105	0.322020	0.771040	0.939800
O1061	O106	0.253360	0.742080	0.880400
O1071	O107	0.458000	0.929400	0.870700
O1081	O108	0.318470	0.713540	0.045300
O1091	O109	0.250820	0.683590	0.986200
O1101	O110	0.445090	0.634990	0.177600
O1111	O111	0.443780	0.568320	0.176400
O1121	O112	0.111400	0.529600	0.015700
C1831	C183	0.298400	0.758890	0.883800
C1841	C184	0.325800	0.767770	0.814100
C1851	C185	0.375600	0.788360	0.811800
H791	H79	0.392000	0.794800	0.855000
C1861	C186	0.451300	0.857600	0.800900
H801	H80	0.418700	0.867300	0.818000
C1871	C187	0.294300	0.683650	0.022300
C1881	C188	0.316500	0.643280	0.041200
C1891	C189	0.290900	0.608700	0.018600
H811	H81	0.261100	0.610700	0.988600
C1901	C190	0.308400	0.571500	0.039700
C1911	C191	0.353300	0.569890	0.083000
H821	H82	0.366000	0.545100	0.097500
C1921	C192	0.380000	0.603630	0.105800
C1931	C193	0.360800	0.640570	0.084000
H831	H83	0.378300	0.663700	0.098700
C1941	C194	0.426800	0.601440	0.156800
C1951	C195	0.278400	0.535020	0.018700
C1961	C196	0.222100	0.533630	0.019400
H841	H84	0.202700	0.556000	0.033400
Cu151	Cu15	0.209790	0.732360	0.534750
O1131	O113	0.177980	0.728960	0.439800
O1141	O114	0.246640	0.757920	0.380400
O1151	O115	0.042000	0.570600	0.370700
O1161	O116	0.181530	0.786460	0.545300
O1171	O117	0.249180	0.816410	0.486200
O1181	O118	0.054910	0.865010	0.677600
O1191	O119	0.056220	0.931680	0.676400
O1201	O120	0.388600	0.970400	0.515700
C1971	C197	0.201600	0.741110	0.383800
C1981	C198	0.174200	0.732230	0.314100
C1991	C199	0.124400	0.711640	0.311800
H851	H85	0.108000	0.705200	0.355000
C2001	C200	0.048700	0.642400	0.300900
H861	H86	0.081300	0.632700	0.318000
C2011	C201	0.205700	0.816350	0.522300
C2021	C202	0.183500	0.856720	0.541200
C2031	C203	0.209100	0.891300	0.518600
H871	H87	0.238900	0.889300	0.488600
C2041	C204	0.191600	0.928500	0.539700
C2051	C205	0.146700	0.930110	0.583000
H881	H88	0.134000	0.954900	0.597500
C2061	C206	0.120000	0.896370	0.605800
C2071	C207	0.139200	0.859430	0.584000
H891	H89	0.121700	0.836300	0.598700
C2081	C208	0.073200	0.898560	0.656800
C2091	C209	0.221600	0.964980	0.518700
C2101	C210	0.277900	0.966370	0.519400
H901	H90	0.297300	0.944000	0.533400
Cu161	Cu16	0.709790	0.232360	0.534750
O1211	O121	0.677980	0.228960	0.439800
O1221	O122	0.746640	0.257920	0.380400
O1231	O123	0.542000	0.070600	0.370700
O1241	O124	0.681530	0.286460	0.545300
O1251	O125	0.749180	0.316410	0.486200
O1261	O126	0.554910	0.365010	0.677600
O1271	O127	0.556220	0.431680	0.676400
O1281	O128	0.888600	0.470400	0.515700
C2111	C211	0.701600	0.241110	0.383800
C2121	C212	0.674200	0.232230	0.314100
C2131	C213	0.624400	0.211640	0.311800
H911	H91	0.608000	0.205200	0.355000
C2141	C214	0.548700	0.142400	0.300900
H921	H92	0.581300	0.132700	0.318000
C2151	C215	0.705700	0.316350	0.522300
C2161	C216	0.683500	0.356720	0.541200
C2171	C217	0.709100	0.391300	0.518600
H931	H93	0.738900	0.389300	0.488600
C2181	C218	0.691600	0.428500	0.539700
C2191	C219	0.646700	0.430110	0.583000
H941	H94	0.634000	0.454900	0.597500
C2201	C220	0.620000	0.396370	0.605800
C2211	C221	0.639200	0.359430	0.584000
H951	H95	0.621700	0.336300	0.598700
C2221	C222	0.573200	0.398560	0.656800
C2231	C223	0.721600	0.464980	0.518700
C2241	C224	0.777900	0.466370	0.519400
H961	H96	0.797300	0.444000	0.533400
Cu171	Cu17	0.000000	0.858950	0.750000
Cu181	Cu18	0.000000	0.937960	0.750000
Cu191	Cu19	0.500000	0.358950	0.750000
Cu201	Cu20	0.500000	0.437960	0.750000
Cu211	Cu21	0.000000	0.141050	0.250000
Cu221	Cu22	0.000000	0.062040	0.250000
Cu231	Cu23	0.500000	0.641050	0.250000
Cu241	Cu24	0.500000	0.562040	0.250000
C2251	C225	0.802400	0.741700	0.250000
H971	H97	0.769500	0.755000	0.250000
C2261	C226	0.901000	0.700700	0.250000
C2271	C227	0.951500	0.679100	0.250000
C2281	C228	0.302400	0.241700	0.250000
H981	H98	0.269500	0.255000	0.250000
C2291	C229	0.401000	0.200700	0.250000
C2301	C230	0.451500	0.179100	0.250000
C2311	C231	0.197600	0.258300	0.750000
H991	H99	0.230500	0.245000	0.750000
C2321	C232	0.099000	0.299300	0.750000
C2331	C233	0.048500	0.320900	0.750000
C2341	C234	0.697600	0.758300	0.750000
H1001	H100	0.730500	0.745000	0.750000
C2351	C235	0.599000	0.799300	0.750000
C2361	C236	0.548500	0.820900	0.750000
C2371	C237	0.197600	0.741700	0.250000
H1011	H101	0.230500	0.755000	0.250000
C2381	C238	0.099000	0.700700	0.250000
C2391	C239	0.048500	0.679100	0.250000
C2401	C240	0.697600	0.241700	0.250000
H1021	H102	0.730500	0.255000	0.250000
C2411	C241	0.599000	0.200700	0.250000
C2421	C242	0.548500	0.179100	0.250000
C2431	C243	0.802400	0.258300	0.750000
H1031	H103	0.769500	0.245000	0.750000
C2441	C244	0.901000	0.299300	0.750000
C2451	C245	0.951500	0.320900	0.750000
C2461	C246	0.302400	0.758300	0.750000
H1041	H104	0.269500	0.745000	0.750000
C2471	C247	0.401000	0.799300	0.750000
C2481	C248	0.451500	0.820900	0.750000
C2491	C249	0.000000	0.695800	0.250000
H1051	H105	0.000000	0.723500	0.250000
C2501	C250	0.500000	0.195800	0.250000
H1061	H106	0.500000	0.223500	0.250000
C2511	C251	0.000000	0.304200	0.750000
H1071	H107	0.000000	0.276500	0.750000
C2521	C252	0.500000	0.804200	0.750000
H1081	H108	0.500000	0.776500	0.750000
C2531	C253	0.000000	0.623500	0.322000
C2541	C254	0.000000	0.586500	0.366000
C2551	C255	0.500000	0.123500	0.322000
C2561	C256	0.500000	0.086500	0.366000
C2571	C257	0.000000	0.376500	0.822000
C2581	C258	0.000000	0.413500	0.866000
C2591	C259	0.500000	0.876500	0.822000
C2601	C260	0.500000	0.913500	0.866000
C2611	C261	0.000000	0.623500	0.178000
C2621	C262	0.000000	0.586500	0.134000
C2631	C263	0.500000	0.123500	0.178000
C2641	C264	0.500000	0.086500	0.134000
C2651	C265	0.000000	0.376500	0.678000
C2661	C266	0.000000	0.413500	0.634000
C2671	C267	0.500000	0.876500	0.678000
C2681	C268	0.500000	0.913500	0.634000
C2691	C269	0.805500	0.000000	0.500000
H1091	H109	0.843000	0.000000	0.500000
C2701	C270	0.695400	0.000000	0.500000
C2711	C271	0.634800	0.000000	0.500000
C2721	C272	0.305500	0.500000	0.500000
H1101	H110	0.343000	0.500000	0.500000
C2731	C273	0.195400	0.500000	0.500000
C2741	C274	0.134800	0.500000	0.500000
C2751	C275	0.194500	0.000000	0.000000
H1111	H111	0.157000	0.000000	0.000000
C2761	C276	0.304600	0.000000	0.000000
C2771	C277	0.365200	0.000000	0.000000
C2781	C278	0.694500	0.500000	0.000000
H1121	H112	0.657000	0.500000	0.000000
C2791	C279	0.804600	0.500000	0.000000
C2801	C280	0.865200	0.500000	0.000000
C2811	C281	0.194500	0.000000	0.500000
H1131	H113	0.157000	0.000000	0.500000
C2821	C282	0.304600	0.000000	0.500000
C2831	C283	0.365200	0.000000	0.500000
C2841	C284	0.694500	0.500000	0.500000
H1141	H114	0.657000	0.500000	0.500000
C2851	C285	0.804600	0.500000	0.500000
C2861	C286	0.865200	0.500000	0.500000
C2871	C287	0.805500	0.000000	0.000000
H1151	H115	0.843000	0.000000	0.000000
C2881	C288	0.695400	0.000000	0.000000
C2891	C289	0.634800	0.000000	0.000000
C2901	C290	0.305500	0.500000	0.000000
H1161	H116	0.343000	0.500000	0.000000
C2911	C291	0.195400	0.500000	0.000000
C2921	C292	0.134800	0.500000	0.000000
