data_VOHQIS_clean_PM
_symmetry_space_group_name_H-M	'P1'
_cell_length_a	12.157000
_cell_length_b	14.202000
_cell_length_c	13.065000
_cell_angle_alpha	90.000000
_cell_angle_beta	91.848000
_cell_angle_gamma	90.000000
_symmetry_Int_Tables_number 1

loop_
_symmetry_equiv_pos_as_xyz
'x,y,z'

loop_
_atom_site_label
_atom_site_type_symbol
_atom_site_fract_x
_atom_site_fract_y
_atom_site_fract_z
Ga11	Ga1	0.112640	0.773510	0.385300
Ga21	Ga2	0.855020	0.878950	0.763190
Ga31	Ga3	0.962650	0.734070	0.158080
Ga41	Ga4	0.364660	0.865220	0.206680
P11	P1	0.109760	0.579100	0.271500
P21	P2	0.121920	0.907330	0.193600
P31	P3	0.372790	0.780090	0.425860
P41	P4	0.016150	0.790970	0.611600
F11	F1	0.973100	0.763200	0.306000
F21	F2	0.786300	0.759300	0.723000
O11	O1	0.136900	0.881100	0.308300
O21	O2	0.233800	0.902000	0.142600
O31	O3	0.944100	0.869300	0.651300
O41	O4	0.031300	0.621100	0.188700
O51	O5	0.818400	0.760900	0.168900
H11	H1	0.784300	0.712200	0.179400
O61	O6	0.065000	0.484500	0.306100
O71	O7	0.125500	0.644500	0.364400
O81	O8	0.253700	0.780800	0.454400
O91	O9	0.222300	0.563300	0.223500
O101	O10	0.041400	0.843500	0.134800
O111	O11	0.396800	0.857700	0.346100
O121	O12	0.448800	0.800900	0.518100
O131	O13	0.034100	0.807400	0.498700
O141	O14	0.406100	0.682300	0.382000
O151	O15	0.077300	0.008000	0.184000
O161	O16	0.968500	0.693400	0.627000
O171	O17	0.125400	0.801900	0.676500
H21	H2	0.169900	0.762400	0.658500
Ga51	Ga5	0.387360	0.273510	0.114700
Ga61	Ga6	0.644980	0.378950	0.736810
Ga71	Ga7	0.537350	0.234070	0.341920
Ga81	Ga8	0.135340	0.365220	0.293320
P51	P5	0.390240	0.079100	0.228500
P61	P6	0.378080	0.407330	0.306400
P71	P7	0.127210	0.280090	0.074140
P81	P8	0.483850	0.290970	0.888400
F31	F3	0.526900	0.263200	0.194000
F41	F4	0.713700	0.259300	0.777000
O181	O18	0.363100	0.381100	0.191700
O191	O19	0.266200	0.402000	0.357400
O201	O20	0.555900	0.369300	0.848700
O211	O21	0.468700	0.121100	0.311300
O221	O22	0.681600	0.260900	0.331100
H31	H3	0.715700	0.212200	0.320600
O231	O23	0.435000	0.984500	0.193900
O241	O24	0.374500	0.144500	0.135600
O251	O25	0.246300	0.280800	0.045600
O261	O26	0.277700	0.063300	0.276500
O271	O27	0.458600	0.343500	0.365200
O281	O28	0.103200	0.357700	0.153900
O291	O29	0.051200	0.300900	0.981900
O301	O30	0.465900	0.307400	0.001300
O311	O31	0.093900	0.182300	0.118000
O321	O32	0.422700	0.508000	0.316000
O331	O33	0.531500	0.193400	0.873000
O341	O34	0.374600	0.301900	0.823500
H41	H4	0.330100	0.262400	0.841500
Ga91	Ga9	0.887360	0.226490	0.614700
Ga101	Ga10	0.144980	0.121050	0.236810
Ga111	Ga11	0.037350	0.265930	0.841920
Ga121	Ga12	0.635340	0.134780	0.793320
P91	P9	0.890240	0.420900	0.728500
P101	P10	0.878080	0.092670	0.806400
P111	P11	0.627210	0.219910	0.574140
P121	P12	0.983850	0.209030	0.388400
F51	F5	0.026900	0.236800	0.694000
F61	F6	0.213700	0.240700	0.277000
O351	O35	0.863100	0.118900	0.691700
O361	O36	0.766200	0.098000	0.857400
O371	O37	0.055900	0.130700	0.348700
O381	O38	0.968700	0.378900	0.811300
O391	O39	0.181600	0.239100	0.831100
H51	H5	0.215700	0.287800	0.820600
O401	O40	0.935000	0.515500	0.693900
O411	O41	0.874500	0.355500	0.635600
O421	O42	0.746300	0.219200	0.545600
O431	O43	0.777700	0.436700	0.776500
O441	O44	0.958600	0.156500	0.865200
O451	O45	0.603200	0.142300	0.653900
O461	O46	0.551200	0.199100	0.481900
O471	O47	0.965900	0.192600	0.501300
O481	O48	0.593900	0.317700	0.618000
O491	O49	0.922700	0.992000	0.816000
O501	O50	0.031500	0.306600	0.373000
O511	O51	0.874600	0.198100	0.323500
H61	H6	0.830100	0.237600	0.341500
Ga131	Ga13	0.612640	0.726490	0.885300
Ga141	Ga14	0.355020	0.621050	0.263190
Ga151	Ga15	0.462650	0.765930	0.658080
Ga161	Ga16	0.864660	0.634780	0.706680
P131	P13	0.609760	0.920900	0.771500
P141	P14	0.621920	0.592670	0.693600
P151	P15	0.872790	0.719910	0.925860
P161	P16	0.516150	0.709030	0.111600
F71	F7	0.473100	0.736800	0.806000
F81	F8	0.286300	0.740700	0.223000
O521	O52	0.636900	0.618900	0.808300
O531	O53	0.733800	0.598000	0.642600
O541	O54	0.444100	0.630700	0.151300
O551	O55	0.531300	0.878900	0.688700
O561	O56	0.318400	0.739100	0.668900
H71	H7	0.284300	0.787800	0.679400
O571	O57	0.565000	0.015500	0.806100
O581	O58	0.625500	0.855500	0.864400
O591	O59	0.753700	0.719200	0.954400
O601	O60	0.722300	0.936700	0.723500
O611	O61	0.541400	0.656500	0.634800
O621	O62	0.896800	0.642300	0.846100
O631	O63	0.948800	0.699100	0.018100
O641	O64	0.534100	0.692600	0.998700
O651	O65	0.906100	0.817700	0.882000
O661	O66	0.577300	0.492000	0.684000
O671	O67	0.468500	0.806600	0.127000
O681	O68	0.625400	0.698100	0.176500
H81	H8	0.669900	0.737600	0.158500
