data_VOJGOS_clean_PM
_symmetry_space_group_name_H-M	'P1'
_cell_length_a	11.877000
_cell_length_b	13.855000
_cell_length_c	13.921000
_cell_angle_alpha	90.000000
_cell_angle_beta	114.403000
_cell_angle_gamma	90.000000
_symmetry_Int_Tables_number 1

loop_
_symmetry_equiv_pos_as_xyz
'x,y,z'

loop_
_atom_site_label
_atom_site_type_symbol
_atom_site_fract_x
_atom_site_fract_y
_atom_site_fract_z
C11	C1	0.428200	0.895650	0.117320
C21	C2	0.359700	0.838930	0.168840
C31	C3	0.416400	0.765810	0.240370
H11	H1	0.500100	0.753200	0.260900
C41	C4	0.348900	0.711440	0.281410
C51	C5	0.224000	0.731200	0.252400
H21	H2	0.178300	0.693100	0.278200
C61	C6	0.167600	0.807810	0.184920
C71	C7	0.236300	0.860130	0.142820
H31	H3	0.198900	0.910400	0.096200
C81	C8	0.410000	0.632420	0.359570
C91	C9	0.036900	0.835390	0.157710
C101	C10	0.945500	0.768820	0.145800
H41	H4	0.965000	0.703600	0.156600
C111	C11	0.825900	0.798720	0.117970
H51	H5	0.766000	0.752400	0.109900
C121	C12	0.880800	0.956540	0.115500
H61	H6	0.859200	0.021500	0.105900
C131	C13	0.001400	0.931760	0.142700
H71	H7	0.059900	0.979400	0.151300
N11	N1	0.791810	0.891060	0.102030
O11	O1	0.370330	0.963930	0.058680
O21	O2	0.536490	0.870160	0.134810
O31	O3	0.518960	0.646980	0.424830
O41	O4	0.346620	0.558090	0.353180
Zn11	Zn1	0.615180	0.940250	0.049620
C141	C14	0.571800	0.395650	0.382680
C151	C15	0.640300	0.338930	0.331160
C161	C16	0.583600	0.265810	0.259630
H81	H8	0.499900	0.253200	0.239100
C171	C17	0.651100	0.211440	0.218590
C181	C18	0.776000	0.231200	0.247600
H91	H9	0.821700	0.193100	0.221800
C191	C19	0.832400	0.307810	0.315080
C201	C20	0.763700	0.360130	0.357180
H101	H10	0.801100	0.410400	0.403800
C211	C21	0.590000	0.132420	0.140430
C221	C22	0.963100	0.335390	0.342290
C231	C23	0.054500	0.268820	0.354200
H111	H11	0.035000	0.203600	0.343400
C241	C24	0.174100	0.298720	0.382030
H121	H12	0.234000	0.252400	0.390100
C251	C25	0.119200	0.456540	0.384500
H131	H13	0.140800	0.521500	0.394100
C261	C26	0.998600	0.431760	0.357300
H141	H14	0.940100	0.479400	0.348700
N21	N2	0.208190	0.391060	0.397970
O51	O5	0.629670	0.463930	0.441320
O61	O6	0.463510	0.370160	0.365190
O71	O7	0.481040	0.146980	0.075170
O81	O8	0.653380	0.058090	0.146820
Zn21	Zn2	0.384820	0.440250	0.450380
C271	C27	0.571800	0.104350	0.882680
C281	C28	0.640300	0.161070	0.831160
C291	C29	0.583600	0.234190	0.759630
H151	H15	0.499900	0.246800	0.739100
C301	C30	0.651100	0.288560	0.718590
C311	C31	0.776000	0.268800	0.747600
H161	H16	0.821700	0.306900	0.721800
C321	C32	0.832400	0.192190	0.815080
C331	C33	0.763700	0.139870	0.857180
H171	H17	0.801100	0.089600	0.903800
C341	C34	0.590000	0.367580	0.640430
C351	C35	0.963100	0.164610	0.842290
C361	C36	0.054500	0.231180	0.854200
H181	H18	0.035000	0.296400	0.843400
C371	C37	0.174100	0.201280	0.882030
H191	H19	0.234000	0.247600	0.890100
C381	C38	0.119200	0.043460	0.884500
H201	H20	0.140800	0.978500	0.894100
C391	C39	0.998600	0.068240	0.857300
H211	H21	0.940100	0.020600	0.848700
N31	N3	0.208190	0.108940	0.897970
O91	O9	0.629670	0.036070	0.941320
O101	O10	0.463510	0.129840	0.865190
O111	O11	0.481040	0.353020	0.575170
O121	O12	0.653380	0.441910	0.646820
Zn31	Zn3	0.384820	0.059750	0.950380
C401	C40	0.428200	0.604350	0.617320
C411	C41	0.359700	0.661070	0.668840
C421	C42	0.416400	0.734190	0.740370
H221	H22	0.500100	0.746800	0.760900
C431	C43	0.348900	0.788560	0.781410
C441	C44	0.224000	0.768800	0.752400
H231	H23	0.178300	0.806900	0.778200
C451	C45	0.167600	0.692190	0.684920
C461	C46	0.236300	0.639870	0.642820
H241	H24	0.198900	0.589600	0.596200
C471	C47	0.410000	0.867580	0.859570
C481	C48	0.036900	0.664610	0.657710
C491	C49	0.945500	0.731180	0.645800
H251	H25	0.965000	0.796400	0.656600
C501	C50	0.825900	0.701280	0.617970
H261	H26	0.766000	0.747600	0.609900
C511	C51	0.880800	0.543460	0.615500
H271	H27	0.859200	0.478500	0.605900
C521	C52	0.001400	0.568240	0.642700
H281	H28	0.059900	0.520600	0.651300
N41	N4	0.791810	0.608940	0.602030
O131	O13	0.370330	0.536070	0.558680
O141	O14	0.536490	0.629840	0.634810
O151	O15	0.518960	0.853020	0.924830
O161	O16	0.346620	0.941910	0.853180
Zn41	Zn4	0.615180	0.559750	0.549620
