data_VOLPET_clean_PM
_symmetry_space_group_name_H-M	'P1'
_cell_length_a	15.516800
_cell_length_b	16.779000
_cell_length_c	18.739400
_cell_angle_alpha	94.142000
_cell_angle_beta	113.527000
_cell_angle_gamma	110.215000
_symmetry_Int_Tables_number 1

loop_
_symmetry_equiv_pos_as_xyz
'x,y,z'

loop_
_atom_site_label
_atom_site_type_symbol
_atom_site_fract_x
_atom_site_fract_y
_atom_site_fract_z
Zn11	Zn1	0.429820	0.410570	0.288200
Zn21	Zn2	0.191150	0.876930	0.466240
Zn31	Zn3	0.008450	0.808400	0.275600
S11	S1	0.268380	0.130980	0.319830
S21	S2	0.767220	0.629360	0.358860
S31	S3	0.293310	0.652180	0.383120
S41	S4	0.748450	0.722400	0.995910
O11	O1	0.109500	0.918300	0.363700
O21	O2	0.125900	0.942500	0.254900
O31	O3	0.393700	0.370800	0.442400
O41	O4	0.394700	0.310500	0.332300
O51	O5	0.602400	0.495400	0.454600
O61	O6	0.568200	0.502100	0.327900
O71	O7	0.933300	0.745700	0.333600
O81	O8	0.056300	0.786800	0.458100
O91	O9	0.905600	0.771200	0.162500
O101	O10	0.867100	0.867700	0.209900
O111	O11	0.626900	0.639700	0.825100
O121	O12	0.508500	0.692400	0.800100
O131	O13	0.421900	0.551500	0.409500
O141	O14	0.339000	0.469300	0.285700
O151	O15	0.208900	0.784200	0.398000
O161	O16	0.087000	0.740200	0.270300
C11	C1	0.167500	0.622600	0.240300
H11	H1	0.116600	0.624100	0.193100
C21	C2	0.217900	0.565900	0.244200
H21	H2	0.203400	0.525900	0.199600
C31	C3	0.688900	0.819400	0.053100
H31	H3	0.682700	0.856500	0.088400
C41	C4	0.765300	0.790700	0.074900
C51	C5	0.639200	0.731000	0.930900
C61	C6	0.620900	0.786600	0.971500
H41	H4	0.566200	0.802400	0.946900
C71	C7	0.852100	0.812900	0.155600
C81	C8	0.809200	0.627400	0.502000
H51	H5	0.804300	0.615200	0.548200
C91	C9	0.201200	0.673200	0.311400
C101	C10	0.287700	0.575500	0.317800
C111	C11	0.586600	0.683600	0.844600
C121	C12	0.144100	0.968900	0.325800
C131	C13	0.220800	0.108300	0.433600
H61	H6	0.193200	0.082000	0.466100
C141	C14	0.899000	0.686000	0.502200
H71	H7	0.959900	0.717000	0.548900
C151	C15	0.357000	0.528700	0.340800
C161	C16	0.208400	0.064200	0.365600
C171	C17	0.624300	0.525400	0.401300
C181	C18	0.889300	0.693300	0.429400
C191	C19	0.160400	0.738100	0.328200
C201	C20	0.373300	0.309300	0.390000
C211	C21	0.731000	0.591000	0.427900
C221	C22	0.966200	0.746500	0.407000
C231	C23	0.311300	0.219600	0.394600
C241	C24	0.279300	0.198000	0.450900
H81	H8	0.294700	0.238200	0.495700
Zn41	Zn4	0.570180	0.589430	0.711800
Zn51	Zn5	0.808850	0.123070	0.533760
Zn61	Zn6	0.991550	0.191600	0.724400
S51	S5	0.731620	0.869020	0.680170
S61	S6	0.232780	0.370640	0.641140
S71	S7	0.706690	0.347820	0.616880
S81	S8	0.251550	0.277600	0.004090
O171	O17	0.890500	0.081700	0.636300
O181	O18	0.874100	0.057500	0.745100
O191	O19	0.606300	0.629200	0.557600
O201	O20	0.605300	0.689500	0.667700
O211	O21	0.397600	0.504600	0.545400
O221	O22	0.431800	0.497900	0.672100
O231	O23	0.066700	0.254300	0.666400
O241	O24	0.943700	0.213200	0.541900
O251	O25	0.094400	0.228800	0.837500
O261	O26	0.132900	0.132300	0.790100
O271	O27	0.373100	0.360300	0.174900
O281	O28	0.491500	0.307600	0.199900
O291	O29	0.578100	0.448500	0.590500
O301	O30	0.661000	0.530700	0.714300
O311	O31	0.791100	0.215800	0.602000
O321	O32	0.913000	0.259800	0.729700
C251	C25	0.832500	0.377400	0.759700
H91	H9	0.883400	0.375900	0.806900
C261	C26	0.782100	0.434100	0.755800
H101	H10	0.796600	0.474100	0.800400
C271	C27	0.311100	0.180600	0.946900
H111	H11	0.317300	0.143500	0.911600
C281	C28	0.234700	0.209300	0.925100
C291	C29	0.360800	0.269000	0.069100
C301	C30	0.379100	0.213400	0.028500
H121	H12	0.433800	0.197600	0.053100
C311	C31	0.147900	0.187100	0.844400
C321	C32	0.190800	0.372600	0.498000
H131	H13	0.195700	0.384800	0.451800
C331	C33	0.798800	0.326800	0.688600
C341	C34	0.712300	0.424500	0.682200
C351	C35	0.413400	0.316400	0.155400
C361	C36	0.855900	0.031100	0.674200
C371	C37	0.779200	0.891700	0.566400
H141	H14	0.806800	0.918000	0.533900
C381	C38	0.101000	0.314000	0.497800
H151	H15	0.040100	0.283000	0.451100
C391	C39	0.643000	0.471300	0.659200
C401	C40	0.791600	0.935800	0.634400
C411	C41	0.375700	0.474600	0.598700
C421	C42	0.110700	0.306700	0.570600
C431	C43	0.839600	0.261900	0.671800
C441	C44	0.626700	0.690700	0.610000
C451	C45	0.269000	0.409000	0.572100
C461	C46	0.033800	0.253500	0.593000
C471	C47	0.688700	0.780400	0.605400
C481	C48	0.720700	0.802000	0.549100
H161	H16	0.705300	0.761800	0.504300
Zn71	Zn7	0.500000	0.500000	0.500000
