data_VONBIK_clean_PM
_symmetry_space_group_name_H-M	'P1'
_cell_length_a	16.441000
_cell_length_b	17.309000
_cell_length_c	18.128000
_cell_angle_alpha	92.439000
_cell_angle_beta	90.000000
_cell_angle_gamma	90.000000
_symmetry_Int_Tables_number 1

loop_
_symmetry_equiv_pos_as_xyz
'x,y,z'

loop_
_atom_site_label
_atom_site_type_symbol
_atom_site_fract_x
_atom_site_fract_y
_atom_site_fract_z
Zn11	Zn1	0.499070	0.724030	0.227560
Zn21	Zn2	0.006250	0.708310	0.790860
Zn31	Zn3	0.000930	0.224030	0.727560
Zn41	Zn4	0.493750	0.208310	0.290860
H11	H1	0.827500	0.693600	0.524700
H21	H2	0.821200	0.783500	0.538600
H31	H3	0.698900	0.755700	0.610700
H41	H4	0.731200	0.670400	0.610000
H51	H5	0.771500	0.847700	0.304200
H61	H6	0.819000	0.755200	0.396100
H71	H7	0.782700	0.671300	0.391400
H81	H8	0.823600	0.586500	0.602500
H91	H9	0.248700	0.021800	0.754200
H101	H10	0.521900	0.145000	0.538900
H111	H11	0.686800	0.701700	0.478800
H121	H12	0.703700	0.790600	0.474200
H131	H13	0.863100	0.858700	0.794500
H141	H14	0.147400	0.937200	0.784900
H151	H15	0.484300	0.084500	0.645000
H161	H16	0.156800	0.441000	0.720400
H171	H17	0.264000	0.524100	0.744100
H181	H18	0.317400	0.501100	0.962700
H191	H19	0.296200	0.986900	0.536500
H201	H20	0.998300	0.441500	0.662000
H211	H21	0.683600	0.595000	0.400900
H221	H22	0.225900	0.784100	0.629000
H231	H23	0.236200	0.302300	0.875600
H241	H24	0.045600	0.536400	0.744600
H251	H25	0.750600	0.850200	0.705300
H261	H26	0.331000	0.867300	0.600700
H271	H27	0.609000	0.482500	0.414800
H281	H28	0.347500	0.382200	0.897000
H291	H29	0.494500	0.604000	0.853100
H301	H30	0.334700	0.048400	0.431200
H311	H31	0.886700	0.467000	0.590300
H321	H32	0.654000	0.860600	0.221200
H331	H33	0.359600	0.564400	0.071000
H341	H34	0.445200	0.560200	0.275000
H351	H35	0.488300	0.465400	0.350000
H361	H36	0.534600	0.669000	0.960200
H371	H37	0.672500	0.193600	0.024700
H381	H38	0.678800	0.283500	0.038600
H391	H39	0.801100	0.255700	0.110700
H401	H40	0.768800	0.170400	0.110000
H411	H41	0.728500	0.347700	0.804200
H421	H42	0.681000	0.255200	0.896100
H431	H43	0.717300	0.171300	0.891400
H441	H44	0.676400	0.086500	0.102500
H451	H45	0.251300	0.521800	0.254200
H461	H46	0.978100	0.645000	0.038900
H471	H47	0.813200	0.201700	0.978800
H481	H48	0.796300	0.290600	0.974200
H491	H49	0.636900	0.358700	0.294500
H501	H50	0.352600	0.437200	0.284900
H511	H51	0.015700	0.584500	0.145000
H521	H52	0.343200	0.941000	0.220400
H531	H53	0.236000	0.024100	0.244100
H541	H54	0.182600	0.001100	0.462700
H551	H55	0.203800	0.486900	0.036500
H561	H56	0.501700	0.941500	0.162000
H571	H57	0.816400	0.095000	0.900900
H581	H58	0.274100	0.284100	0.129000
H591	H59	0.263800	0.802300	0.375600
H601	H60	0.454400	0.036400	0.244600
H611	H61	0.749400	0.350200	0.205300
H621	H62	0.169000	0.367300	0.100700
H631	H63	0.891000	0.982500	0.914800
H641	H64	0.152500	0.882200	0.397000
H651	H65	0.005500	0.104000	0.353100
H661	H66	0.165300	0.548400	0.931200
H671	H67	0.613300	0.967000	0.090300
H681	H68	0.846000	0.360600	0.721200
H691	H69	0.140400	0.064400	0.571000
H701	H70	0.054800	0.060200	0.775000
H711	H71	0.011700	0.965400	0.850000
H721	H72	0.965400	0.169000	0.460200
C11	C1	0.644900	0.715700	0.312440
C21	C2	0.453000	0.143900	0.405600
C31	C3	0.790000	0.735900	0.535100
C41	C4	0.747700	0.724100	0.608010
C51	C5	0.865500	0.707800	0.699260
C61	C6	0.727600	0.814000	0.299200
C71	C7	0.768900	0.725700	0.397790
C81	C8	0.899200	0.630800	0.681020
C91	C9	0.112500	0.795800	0.734300
C101	C10	0.175900	0.851300	0.710500
C111	C11	0.185000	0.363100	0.795200
C121	C12	0.402700	0.544900	0.898000
C131	C13	0.473600	0.667400	0.097300
C141	C14	0.300000	0.951200	0.675800
C151	C15	0.385900	0.030600	0.601200
C161	C16	0.868900	0.575800	0.631000
C171	C17	0.244800	0.973500	0.730000
C181	C18	0.476000	0.113400	0.538300
C191	C19	0.729100	0.740000	0.472410
C201	C20	0.315200	0.461100	0.823400
C211	C21	0.605000	0.643000	0.331190
C221	C22	0.853200	0.817700	0.760900
C231	C23	0.450700	0.624100	0.027300
C241	C24	0.183900	0.923100	0.747500
C251	C25	0.453700	0.077300	0.602100
C261	C26	0.194600	0.429500	0.756500
C271	C27	0.258700	0.479200	0.770200
C281	C28	0.361800	0.534300	0.962200
C291	C29	0.341500	0.019100	0.537400
C301	C30	0.972600	0.489400	0.666100
C311	C31	0.634500	0.587500	0.376100
C321	C32	0.431400	0.103400	0.473900
C331	C33	0.231100	0.831400	0.654900
C341	C34	0.242300	0.346500	0.848600
C351	C35	0.000900	0.546800	0.715200
C361	C36	0.791000	0.813500	0.711400
C371	C37	0.293800	0.881100	0.637500
C381	C38	0.590400	0.520300	0.384000
C391	C39	0.308400	0.394500	0.862300
C401	C40	0.467200	0.596000	0.897100
C411	C41	0.364900	0.056000	0.474300
C421	C42	0.906500	0.504600	0.623900
C431	C43	0.662400	0.820700	0.253100
C441	C44	0.386700	0.573100	0.027100
C451	C45	0.493200	0.567500	0.301600
C461	C46	0.518800	0.510300	0.345800
C471	C47	0.490900	0.634900	0.961200
C481	C48	0.116200	0.308700	0.777100
C491	C49	0.855100	0.215700	0.812440
C501	C50	0.047000	0.643900	0.905600
C511	C51	0.710000	0.235900	0.035100
C521	C52	0.752300	0.224100	0.108010
C531	C53	0.634500	0.207800	0.199260
C541	C54	0.772400	0.314000	0.799200
C551	C55	0.731100	0.225700	0.897790
C561	C56	0.600800	0.130800	0.181020
C571	C57	0.387500	0.295800	0.234300
C581	C58	0.324100	0.351300	0.210500
C591	C59	0.315000	0.863100	0.295200
C601	C60	0.097300	0.044900	0.398000
C611	C61	0.026400	0.167400	0.597300
C621	C62	0.200000	0.451200	0.175800
C631	C63	0.114100	0.530600	0.101200
C641	C64	0.631100	0.075800	0.131000
C651	C65	0.255200	0.473500	0.230000
C661	C66	0.024000	0.613400	0.038300
C671	C67	0.770900	0.240000	0.972410
C681	C68	0.184800	0.961100	0.323400
C691	C69	0.895000	0.143000	0.831190
C701	C70	0.646800	0.317700	0.260900
C711	C71	0.049300	0.124100	0.527300
C721	C72	0.316100	0.423100	0.247500
C731	C73	0.046300	0.577300	0.102100
C741	C74	0.305400	0.929500	0.256500
C751	C75	0.241300	0.979200	0.270200
C761	C76	0.138200	0.034300	0.462200
C771	C77	0.158500	0.519100	0.037400
C781	C78	0.527400	0.989400	0.166100
C791	C79	0.865500	0.087500	0.876100
C801	C80	0.068600	0.603400	0.973900
C811	C81	0.268900	0.331400	0.154900
C821	C82	0.257700	0.846500	0.348600
C831	C83	0.499100	0.046800	0.215200
C841	C84	0.709000	0.313500	0.211400
C851	C85	0.206200	0.381100	0.137500
C861	C86	0.909600	0.020300	0.884000
C871	C87	0.191600	0.894500	0.362300
C881	C88	0.032800	0.096000	0.397100
C891	C89	0.135100	0.556000	0.974300
C901	C90	0.593500	0.004600	0.123900
C911	C91	0.837600	0.320700	0.753100
C921	C92	0.113300	0.073100	0.527100
C931	C93	0.006800	0.067500	0.801600
C941	C94	0.981200	0.010300	0.845800
C951	C95	0.009100	0.134900	0.461200
C961	C96	0.383800	0.808700	0.277100
N11	N1	0.799820	0.744190	0.672170
N21	N2	0.715380	0.747670	0.336740
N31	N3	0.966360	0.615950	0.721730
N41	N4	0.533700	0.632850	0.294870
N51	N5	0.611700	0.759240	0.261470
N61	N6	0.898690	0.751760	0.753180
N71	N7	0.700180	0.244190	0.172170
N81	N8	0.784620	0.247670	0.836740
N91	N9	0.533640	0.115950	0.221730
N101	N10	0.966300	0.132850	0.794870
N111	N11	0.888300	0.259240	0.761470
N121	N12	0.601310	0.251760	0.253180
O11	O1	0.516300	0.186370	0.404570
O21	O2	0.366440	0.000440	0.668210
O31	O3	0.408610	0.136140	0.349370
O41	O4	0.073970	0.810350	0.793540
O51	O5	0.382450	0.509750	0.830380
O61	O6	0.099100	0.735300	0.697370
O71	O7	0.527200	0.718100	0.098910
O81	O8	0.435000	0.651710	0.155440
O91	O9	0.068270	0.324000	0.725900
O101	O10	0.107000	0.249000	0.812100
O111	O11	0.983700	0.686370	0.904570
O121	O12	0.133560	0.500440	0.168210
O131	O13	0.091390	0.636140	0.849370
O141	O14	0.426030	0.310350	0.293540
O151	O15	0.117550	0.009750	0.330380
O161	O16	0.400900	0.235300	0.197370
O171	O17	0.972800	0.218100	0.598910
O181	O18	0.065000	0.151710	0.655440
O191	O19	0.431730	0.824000	0.225900
O201	O20	0.393000	0.749000	0.312100
Zn51	Zn5	0.999070	0.775970	0.272440
Zn61	Zn6	0.506250	0.791690	0.709140
Zn71	Zn7	0.500930	0.275970	0.772440
Zn81	Zn8	0.993750	0.291690	0.209140
H731	H73	0.327500	0.806400	0.975300
H741	H74	0.321200	0.716500	0.961400
H751	H75	0.198900	0.744300	0.889300
H761	H76	0.231200	0.829600	0.890000
H771	H77	0.271500	0.652300	0.195800
H781	H78	0.319000	0.744800	0.103900
H791	H79	0.282700	0.828700	0.108600
H801	H80	0.323600	0.913500	0.897500
H811	H81	0.748700	0.478200	0.745800
H821	H82	0.021900	0.355000	0.961100
H831	H83	0.186800	0.798300	0.021200
H841	H84	0.203700	0.709400	0.025800
H851	H85	0.363100	0.641300	0.705500
H861	H86	0.647400	0.562800	0.715100
H871	H87	0.984300	0.415500	0.855000
H881	H88	0.656800	0.059000	0.779600
H891	H89	0.764000	0.975900	0.755900
H901	H90	0.817400	0.998900	0.537300
H911	H91	0.796200	0.513100	0.963500
H921	H92	0.498300	0.058500	0.838000
H931	H93	0.183600	0.905000	0.099100
H941	H94	0.725900	0.715900	0.871000
H951	H95	0.736200	0.197700	0.624400
H961	H96	0.545600	0.963600	0.755400
H971	H97	0.250600	0.649800	0.794700
H981	H98	0.831000	0.632700	0.899300
H991	H99	0.109000	0.017500	0.085200
H1001	H100	0.847500	0.117800	0.603000
H1011	H101	0.994500	0.896000	0.646900
H1021	H102	0.834700	0.451600	0.068800
H1031	H103	0.386700	0.033000	0.909700
H1041	H104	0.154000	0.639400	0.278800
H1051	H105	0.859600	0.935600	0.429000
H1061	H106	0.945200	0.939800	0.225000
H1071	H107	0.988300	0.034600	0.150000
H1081	H108	0.034600	0.831000	0.539800
H1091	H109	0.172500	0.306400	0.475300
H1101	H110	0.178800	0.216500	0.461400
H1111	H111	0.301100	0.244300	0.389300
H1121	H112	0.268800	0.329600	0.390000
H1131	H113	0.228500	0.152300	0.695800
H1141	H114	0.181000	0.244800	0.603900
H1151	H115	0.217300	0.328700	0.608600
H1161	H116	0.176400	0.413500	0.397500
H1171	H117	0.751300	0.978200	0.245800
H1181	H118	0.478100	0.855000	0.461100
H1191	H119	0.313200	0.298300	0.521200
H1201	H120	0.296300	0.209400	0.525800
H1211	H121	0.136900	0.141300	0.205500
H1221	H122	0.852600	0.062800	0.215100
H1231	H123	0.515700	0.915500	0.355000
H1241	H124	0.843200	0.559000	0.279600
H1251	H125	0.736000	0.475900	0.255900
H1261	H126	0.682600	0.498900	0.037300
H1271	H127	0.703800	0.013100	0.463500
H1281	H128	0.001700	0.558500	0.338000
H1291	H129	0.316400	0.405000	0.599100
H1301	H130	0.774100	0.215900	0.371000
H1311	H131	0.763800	0.697700	0.124400
H1321	H132	0.954400	0.463600	0.255400
H1331	H133	0.249400	0.149800	0.294700
H1341	H134	0.669000	0.132700	0.399300
H1351	H135	0.391000	0.517500	0.585200
H1361	H136	0.652500	0.617800	0.103000
H1371	H137	0.505500	0.396000	0.146900
H1381	H138	0.665300	0.951600	0.568800
H1391	H139	0.113300	0.533000	0.409700
H1401	H140	0.346000	0.139400	0.778800
H1411	H141	0.640400	0.435600	0.929000
H1421	H142	0.554800	0.439800	0.725000
H1431	H143	0.511700	0.534600	0.650000
H1441	H144	0.465400	0.331000	0.039800
C971	C97	0.144900	0.784300	0.187560
C981	C98	0.953000	0.356100	0.094400
C991	C99	0.290000	0.764100	0.964900
C1001	C100	0.247700	0.775900	0.891990
C1011	C101	0.365500	0.792200	0.800740
C1021	C102	0.227600	0.686000	0.200800
C1031	C103	0.268900	0.774300	0.102210
C1041	C104	0.399200	0.869200	0.818980
C1051	C105	0.612500	0.704200	0.765700
C1061	C106	0.675900	0.648700	0.789500
C1071	C107	0.685000	0.136900	0.704800
C1081	C108	0.902700	0.955100	0.602000
C1091	C109	0.973600	0.832600	0.402700
C1101	C110	0.800000	0.548800	0.824200
C1111	C111	0.885900	0.469400	0.898800
C1121	C112	0.368900	0.924200	0.869000
C1131	C113	0.744800	0.526500	0.770000
C1141	C114	0.976000	0.386600	0.961700
C1151	C115	0.229100	0.760000	0.027590
C1161	C116	0.815200	0.038900	0.676600
C1171	C117	0.105000	0.857000	0.168810
C1181	C118	0.353200	0.682300	0.739100
C1191	C119	0.950700	0.875900	0.472700
C1201	C120	0.683900	0.576900	0.752500
C1211	C121	0.953700	0.422700	0.897900
C1221	C122	0.694600	0.070500	0.743500
C1231	C123	0.758700	0.020800	0.729800
C1241	C124	0.861800	0.965700	0.537800
C1251	C125	0.841500	0.480900	0.962600
C1261	C126	0.472600	0.010600	0.833900
C1271	C127	0.134500	0.912500	0.123900
C1281	C128	0.931400	0.396600	0.026100
C1291	C129	0.731100	0.668600	0.845100
C1301	C130	0.742300	0.153500	0.651400
C1311	C131	0.500900	0.953200	0.784800
C1321	C132	0.291000	0.686500	0.788600
C1331	C133	0.793800	0.618900	0.862500
C1341	C134	0.090400	0.979700	0.116000
C1351	C135	0.808400	0.105500	0.637700
C1361	C136	0.967200	0.904000	0.602900
C1371	C137	0.864900	0.444000	0.025700
C1381	C138	0.406500	0.995400	0.876100
C1391	C139	0.162400	0.679300	0.246900
C1401	C140	0.886700	0.926900	0.472900
C1411	C141	0.993200	0.932500	0.198400
C1421	C142	0.018800	0.989700	0.154200
C1431	C143	0.990900	0.865100	0.538800
C1441	C144	0.616200	0.191300	0.722900
C1451	C145	0.355100	0.284300	0.687560
C1461	C146	0.547000	0.856100	0.594400
C1471	C147	0.210000	0.264100	0.464900
C1481	C148	0.252300	0.275900	0.391990
C1491	C149	0.134500	0.292200	0.300740
C1501	C150	0.272400	0.186000	0.700800
C1511	C151	0.231100	0.274300	0.602210
C1521	C152	0.100800	0.369200	0.318980
C1531	C153	0.887500	0.204200	0.265700
C1541	C154	0.824100	0.148700	0.289500
C1551	C155	0.815000	0.636900	0.204800
C1561	C156	0.597300	0.455100	0.102000
C1571	C157	0.526400	0.332600	0.902700
C1581	C158	0.700000	0.048800	0.324200
C1591	C159	0.614100	0.969400	0.398800
C1601	C160	0.131100	0.424200	0.369000
C1611	C161	0.755200	0.026500	0.270000
C1621	C162	0.524000	0.886600	0.461700
C1631	C163	0.270900	0.260000	0.527590
C1641	C164	0.684800	0.538900	0.176600
C1651	C165	0.395000	0.357000	0.668810
C1661	C166	0.146800	0.182300	0.239100
C1671	C167	0.549300	0.375900	0.972700
C1681	C168	0.816100	0.076900	0.252500
C1691	C169	0.546300	0.922700	0.397900
C1701	C170	0.805400	0.570500	0.243500
C1711	C171	0.741300	0.520800	0.229800
C1721	C172	0.638200	0.465700	0.037800
C1731	C173	0.658500	0.980900	0.462600
C1741	C174	0.027400	0.510600	0.333900
C1751	C175	0.365500	0.412500	0.623900
C1761	C176	0.568600	0.896600	0.526100
C1771	C177	0.768900	0.168600	0.345100
C1781	C178	0.757700	0.653500	0.151400
C1791	C179	0.999100	0.453200	0.284800
C1801	C180	0.209000	0.186500	0.288600
C1811	C181	0.706200	0.118900	0.362500
C1821	C182	0.409600	0.479700	0.616000
C1831	C183	0.691600	0.605500	0.137700
C1841	C184	0.532800	0.404000	0.102900
C1851	C185	0.635100	0.944000	0.525700
C1861	C186	0.093500	0.495400	0.376100
C1871	C187	0.337600	0.179300	0.746900
C1881	C188	0.613300	0.426900	0.972900
C1891	C189	0.506800	0.432500	0.698400
C1901	C190	0.481200	0.489700	0.654200
C1911	C191	0.509100	0.365100	0.038800
C1921	C192	0.883800	0.691300	0.222900
N131	N13	0.299820	0.755810	0.827830
N141	N14	0.215380	0.752330	0.163260
N151	N15	0.466360	0.884050	0.778270
N161	N16	0.033700	0.867150	0.205130
N171	N17	0.111700	0.740760	0.238530
N181	N18	0.398690	0.748240	0.746820
N191	N19	0.200180	0.255810	0.327830
N201	N20	0.284620	0.252330	0.663260
N211	N21	0.033640	0.384050	0.278270
N221	N22	0.466300	0.367150	0.705130
N231	N23	0.388300	0.240760	0.738530
N241	N24	0.101310	0.248240	0.246820
O211	O21	0.016300	0.313630	0.095430
O221	O22	0.866440	0.499560	0.831790
O231	O23	0.908610	0.363860	0.150630
O241	O24	0.573970	0.689650	0.706460
O251	O25	0.882450	0.990250	0.669620
O261	O26	0.599100	0.764700	0.802630
O271	O27	0.027200	0.781900	0.401090
O281	O28	0.935000	0.848290	0.344560
O291	O29	0.568270	0.176000	0.774100
O301	O30	0.607000	0.251000	0.687900
O311	O31	0.483700	0.813630	0.595430
O321	O32	0.633560	0.999560	0.331790
O331	O33	0.591390	0.863860	0.650630
O341	O34	0.926030	0.189650	0.206460
O351	O35	0.617550	0.490250	0.169620
O361	O36	0.900900	0.264700	0.302630
O371	O37	0.472800	0.281900	0.901090
O381	O38	0.565000	0.348290	0.844560
O391	O39	0.931730	0.676000	0.274100
O401	O40	0.893000	0.751000	0.187900
