data_VONCOS_clean_PM
_symmetry_space_group_name_H-M	'P1'
_cell_length_a	24.408000
_cell_length_b	27.827000
_cell_length_c	5.150900
_cell_angle_alpha	90.000000
_cell_angle_beta	90.000000
_cell_angle_gamma	90.000000
_symmetry_Int_Tables_number 1

loop_
_symmetry_equiv_pos_as_xyz
'x,y,z'

loop_
_atom_site_label
_atom_site_type_symbol
_atom_site_fract_x
_atom_site_fract_y
_atom_site_fract_z
Zn11	Zn1	0.464910	0.450700	0.287110
P11	P1	0.581250	0.501630	0.224000
P21	P2	0.416710	0.354130	0.076800
O11	O1	0.579570	0.509700	0.936000
O21	O2	0.541700	0.462700	0.318700
O31	O3	0.569700	0.548470	0.372200
O41	O4	0.463380	0.382500	0.199100
O51	O5	0.415900	0.363000	0.775700
H11	H1	0.413600	0.392600	0.746200
O61	O6	0.421100	0.301200	0.105100
C11	C1	0.647900	0.480200	0.314200
H21	H2	0.649000	0.477500	0.505800
H31	H3	0.652300	0.447400	0.242900
C21	C2	0.301800	0.353900	0.071200
H41	H4	0.301700	0.361400	0.883200
H51	H5	0.303100	0.318600	0.090800
C31	C3	0.352400	0.375900	0.195700
H61	H6	0.350800	0.369900	0.385000
H71	H7	0.351200	0.411100	0.169400
C41	C4	0.696800	0.509800	0.229400
H81	H8	0.697100	0.512200	0.037600
H91	H9	0.693400	0.542800	0.300300
Zn21	Zn2	0.035090	0.049300	0.287110
P31	P3	0.918750	0.998370	0.224000
P41	P4	0.083290	0.145870	0.076800
O71	O7	0.920430	0.990300	0.936000
O81	O8	0.958300	0.037300	0.318700
O91	O9	0.930300	0.951530	0.372200
O101	O10	0.036620	0.117500	0.199100
O111	O11	0.084100	0.137000	0.775700
H101	H10	0.086400	0.107400	0.746200
O121	O12	0.078900	0.198800	0.105100
C51	C5	0.852100	0.019800	0.314200
H111	H11	0.851000	0.022500	0.505800
H121	H12	0.847700	0.052600	0.242900
C61	C6	0.198200	0.146100	0.071200
H131	H13	0.198300	0.138600	0.883200
H141	H14	0.196900	0.181400	0.090800
C71	C7	0.147600	0.124100	0.195700
H151	H15	0.149200	0.130100	0.385000
H161	H16	0.148800	0.088900	0.169400
C81	C8	0.803200	0.990200	0.229400
H171	H17	0.802900	0.987800	0.037600
H181	H18	0.806600	0.957200	0.300300
Zn31	Zn3	0.535090	0.950700	0.712890
P51	P5	0.418750	0.001630	0.776000
P61	P6	0.583290	0.854130	0.923200
O131	O13	0.420430	0.009700	0.064000
O141	O14	0.458300	0.962700	0.681300
O151	O15	0.430300	0.048470	0.627800
O161	O16	0.536620	0.882500	0.800900
O171	O17	0.584100	0.863000	0.224300
H191	H19	0.586400	0.892600	0.253800
O181	O18	0.578900	0.801200	0.894900
C91	C9	0.352100	0.980200	0.685800
H201	H20	0.351000	0.977500	0.494200
H211	H21	0.347700	0.947400	0.757100
C101	C10	0.698200	0.853900	0.928800
H221	H22	0.698300	0.861400	0.116800
H231	H23	0.696900	0.818600	0.909200
C111	C11	0.647600	0.875900	0.804300
H241	H24	0.649200	0.869900	0.615000
H251	H25	0.648800	0.911100	0.830600
C121	C12	0.303200	0.009800	0.770600
H261	H26	0.302900	0.012200	0.962400
H271	H27	0.306600	0.042800	0.699700
Zn41	Zn4	0.964910	0.549300	0.712890
P71	P7	0.081250	0.498370	0.776000
P81	P8	0.916710	0.645870	0.923200
O191	O19	0.079570	0.490300	0.064000
O201	O20	0.041700	0.537300	0.681300
O211	O21	0.069700	0.451530	0.627800
O221	O22	0.963380	0.617500	0.800900
O231	O23	0.915900	0.637000	0.224300
H281	H28	0.913600	0.607400	0.253800
O241	O24	0.921100	0.698800	0.894900
C131	C13	0.147900	0.519800	0.685800
H291	H29	0.149000	0.522500	0.494200
H301	H30	0.152300	0.552600	0.757100
C141	C14	0.801800	0.646100	0.928800
H311	H31	0.801700	0.638600	0.116800
H321	H32	0.803100	0.681400	0.909200
C151	C15	0.852400	0.624100	0.804300
H331	H33	0.850800	0.630100	0.615000
H341	H34	0.851200	0.588900	0.830600
C161	C16	0.196800	0.490200	0.770600
H351	H35	0.197100	0.487800	0.962400
H361	H36	0.193400	0.457200	0.699700
Zn51	Zn5	0.535090	0.549300	0.712890
P91	P9	0.418750	0.498370	0.776000
P101	P10	0.583290	0.645870	0.923200
O251	O25	0.420430	0.490300	0.064000
O261	O26	0.458300	0.537300	0.681300
O271	O27	0.430300	0.451530	0.627800
O281	O28	0.536620	0.617500	0.800900
O291	O29	0.584100	0.637000	0.224300
H371	H37	0.586400	0.607400	0.253800
O301	O30	0.578900	0.698800	0.894900
C171	C17	0.352100	0.519800	0.685800
H381	H38	0.351000	0.522500	0.494200
H391	H39	0.347700	0.552600	0.757100
C181	C18	0.698200	0.646100	0.928800
H401	H40	0.698300	0.638600	0.116800
H411	H41	0.696900	0.681400	0.909200
C191	C19	0.647600	0.624100	0.804300
H421	H42	0.649200	0.630100	0.615000
H431	H43	0.648800	0.588900	0.830600
C201	C20	0.303200	0.490200	0.770600
H441	H44	0.302900	0.487800	0.962400
H451	H45	0.306600	0.457200	0.699700
Zn61	Zn6	0.964910	0.950700	0.712890
P111	P11	0.081250	0.001630	0.776000
P121	P12	0.916710	0.854130	0.923200
O311	O31	0.079570	0.009700	0.064000
O321	O32	0.041700	0.962700	0.681300
O331	O33	0.069700	0.048470	0.627800
O341	O34	0.963380	0.882500	0.800900
O351	O35	0.915900	0.863000	0.224300
H461	H46	0.913600	0.892600	0.253800
O361	O36	0.921100	0.801200	0.894900
C211	C21	0.147900	0.980200	0.685800
H471	H47	0.149000	0.977500	0.494200
H481	H48	0.152300	0.947400	0.757100
C221	C22	0.801800	0.853900	0.928800
H491	H49	0.801700	0.861400	0.116800
H501	H50	0.803100	0.818600	0.909200
C231	C23	0.852400	0.875900	0.804300
H511	H51	0.850800	0.869900	0.615000
H521	H52	0.851200	0.911100	0.830600
C241	C24	0.196800	0.009800	0.770600
H531	H53	0.197100	0.012200	0.962400
H541	H54	0.193400	0.042800	0.699700
Zn71	Zn7	0.464910	0.049300	0.287110
P131	P13	0.581250	0.998370	0.224000
P141	P14	0.416710	0.145870	0.076800
O371	O37	0.579570	0.990300	0.936000
O381	O38	0.541700	0.037300	0.318700
O391	O39	0.569700	0.951530	0.372200
O401	O40	0.463380	0.117500	0.199100
O411	O41	0.415900	0.137000	0.775700
H551	H55	0.413600	0.107400	0.746200
O421	O42	0.421100	0.198800	0.105100
C251	C25	0.647900	0.019800	0.314200
H561	H56	0.649000	0.022500	0.505800
H571	H57	0.652300	0.052600	0.242900
C261	C26	0.301800	0.146100	0.071200
H581	H58	0.301700	0.138600	0.883200
H591	H59	0.303100	0.181400	0.090800
C271	C27	0.352400	0.124100	0.195700
H601	H60	0.350800	0.130100	0.385000
H611	H61	0.351200	0.088900	0.169400
C281	C28	0.696800	0.990200	0.229400
H621	H62	0.697100	0.987800	0.037600
H631	H63	0.693400	0.957200	0.300300
Zn81	Zn8	0.035090	0.450700	0.287110
P151	P15	0.918750	0.501630	0.224000
P161	P16	0.083290	0.354130	0.076800
O431	O43	0.920430	0.509700	0.936000
O441	O44	0.958300	0.462700	0.318700
O451	O45	0.930300	0.548470	0.372200
O461	O46	0.036620	0.382500	0.199100
O471	O47	0.084100	0.363000	0.775700
H641	H64	0.086400	0.392600	0.746200
O481	O48	0.078900	0.301200	0.105100
C291	C29	0.852100	0.480200	0.314200
H651	H65	0.851000	0.477500	0.505800
H661	H66	0.847700	0.447400	0.242900
C301	C30	0.198200	0.353900	0.071200
H671	H67	0.198300	0.361400	0.883200
H681	H68	0.196900	0.318600	0.090800
C311	C31	0.147600	0.375900	0.195700
H691	H69	0.149200	0.369900	0.385000
H701	H70	0.148800	0.411100	0.169400
C321	C32	0.803200	0.509800	0.229400
H711	H71	0.802900	0.512200	0.037600
H721	H72	0.806600	0.542800	0.300300
Zn91	Zn9	0.461380	0.250000	0.306100
Zn101	Zn10	0.038620	0.250000	0.306100
Zn111	Zn11	0.538620	0.750000	0.693900
Zn121	Zn12	0.961380	0.750000	0.693900
C331	C33	0.750000	0.487900	0.321000
H731	H73	0.750000	0.453700	0.268700
H741	H74	0.750000	0.488700	0.513200
C341	C34	0.750000	0.012100	0.321000
H751	H75	0.750000	0.046300	0.268700
H761	H76	0.750000	0.011300	0.513200
C351	C35	0.250000	0.987900	0.679000
H771	H77	0.250000	0.953700	0.731300
H781	H78	0.250000	0.988700	0.486800
C361	C36	0.250000	0.512100	0.679000
H791	H79	0.250000	0.546300	0.731300
H801	H80	0.250000	0.511300	0.486800
C371	C37	0.250000	0.372600	0.191000
H811	H81	0.250000	0.408100	0.178600
H821	H82	0.250000	0.364100	0.377800
C381	C38	0.250000	0.127400	0.191000
H831	H83	0.250000	0.091900	0.178600
H841	H84	0.250000	0.135900	0.377800
C391	C39	0.750000	0.872600	0.809000
H851	H85	0.750000	0.908100	0.821400
H861	H86	0.750000	0.864100	0.622200
C401	C40	0.750000	0.627400	0.809000
H871	H87	0.750000	0.591900	0.821400
H881	H88	0.750000	0.635900	0.622200
