data_VONCIM_clean_PM
_symmetry_space_group_name_H-M	'P1'
_cell_length_a	19.397000
_cell_length_b	27.620000
_cell_length_c	5.165500
_cell_angle_alpha	90.000000
_cell_angle_beta	90.000000
_cell_angle_gamma	90.000000
_symmetry_Int_Tables_number 1

loop_
_symmetry_equiv_pos_as_xyz
'x,y,z'

loop_
_atom_site_label
_atom_site_type_symbol
_atom_site_fract_x
_atom_site_fract_y
_atom_site_fract_z
Zn11	Zn1	0.546160	0.952020	0.779620
O11	O1	0.547180	0.883690	0.680800
O21	O2	0.601090	0.991640	0.553800
O31	O3	0.594690	0.952750	0.113600
O41	O4	0.449190	0.962340	0.831400
P11	P1	0.396650	0.999330	0.735350
C11	C1	0.314560	0.973540	0.815600
H11	H1	0.311800	0.941200	0.733900
H21	H2	0.313200	0.968600	0.005400
P21	P2	0.394720	0.145460	0.440690
C21	C2	0.314310	0.123680	0.317000
O51	O5	0.400740	0.199150	0.410000
O61	O6	0.393180	0.136350	0.741600
H31	H3	0.313100	0.129700	0.128200
H41	H4	0.312500	0.088200	0.343000
H51	H5	0.395500	0.106500	0.770800
Zn21	Zn2	0.953840	0.547980	0.779620
O71	O7	0.952820	0.616310	0.680800
O81	O8	0.898910	0.508360	0.553800
O91	O9	0.905310	0.547250	0.113600
O101	O10	0.050810	0.537660	0.831400
P31	P3	0.103350	0.500670	0.735350
C31	C3	0.185440	0.526460	0.815600
H61	H6	0.188200	0.558800	0.733900
H71	H7	0.186800	0.531400	0.005400
P41	P4	0.105280	0.354540	0.440690
C41	C4	0.185690	0.376320	0.317000
O111	O11	0.099260	0.300850	0.410000
O121	O12	0.106820	0.363650	0.741600
H81	H8	0.186900	0.370300	0.128200
H91	H9	0.187500	0.411800	0.343000
H101	H10	0.104500	0.393500	0.770800
Zn31	Zn3	0.453840	0.452020	0.220380
O131	O13	0.452820	0.383690	0.319200
O141	O14	0.398910	0.491640	0.446200
O151	O15	0.405310	0.452750	0.886400
O161	O16	0.550810	0.462340	0.168600
P51	P5	0.603350	0.499330	0.264650
C51	C5	0.685440	0.473540	0.184400
H111	H11	0.688200	0.441200	0.266100
H121	H12	0.686800	0.468600	0.994600
P61	P6	0.605280	0.645460	0.559310
C61	C6	0.685690	0.623680	0.683000
O171	O17	0.599260	0.699150	0.590000
O181	O18	0.606820	0.636350	0.258400
H131	H13	0.686900	0.629700	0.871800
H141	H14	0.687500	0.588200	0.657000
H151	H15	0.604500	0.606500	0.229200
Zn41	Zn4	0.046160	0.047980	0.220380
O191	O19	0.047180	0.116310	0.319200
O201	O20	0.101090	0.008360	0.446200
O211	O21	0.094690	0.047250	0.886400
O221	O22	0.949190	0.037660	0.168600
P71	P7	0.896650	0.000670	0.264650
C71	C7	0.814560	0.026460	0.184400
H161	H16	0.811800	0.058800	0.266100
H171	H17	0.813200	0.031400	0.994600
P81	P8	0.894720	0.854540	0.559310
C81	C8	0.814310	0.876320	0.683000
O231	O23	0.900740	0.800850	0.590000
O241	O24	0.893180	0.863650	0.258400
H181	H18	0.813100	0.870300	0.871800
H191	H19	0.812500	0.911800	0.657000
H201	H20	0.895500	0.893500	0.229200
Zn51	Zn5	0.453840	0.047980	0.220380
O251	O25	0.452820	0.116310	0.319200
O261	O26	0.398910	0.008360	0.446200
O271	O27	0.405310	0.047250	0.886400
O281	O28	0.550810	0.037660	0.168600
P91	P9	0.603350	0.000670	0.264650
C91	C9	0.685440	0.026460	0.184400
H211	H21	0.688200	0.058800	0.266100
H221	H22	0.686800	0.031400	0.994600
P101	P10	0.605280	0.854540	0.559310
C101	C10	0.685690	0.876320	0.683000
O291	O29	0.599260	0.800850	0.590000
O301	O30	0.606820	0.863650	0.258400
H231	H23	0.686900	0.870300	0.871800
H241	H24	0.687500	0.911800	0.657000
H251	H25	0.604500	0.893500	0.229200
Zn61	Zn6	0.046160	0.452020	0.220380
O311	O31	0.047180	0.383690	0.319200
O321	O32	0.101090	0.491640	0.446200
O331	O33	0.094690	0.452750	0.886400
O341	O34	0.949190	0.462340	0.168600
P111	P11	0.896650	0.499330	0.264650
C111	C11	0.814560	0.473540	0.184400
H261	H26	0.811800	0.441200	0.266100
H271	H27	0.813200	0.468600	0.994600
P121	P12	0.894720	0.645460	0.559310
C121	C12	0.814310	0.623680	0.683000
O351	O35	0.900740	0.699150	0.590000
O361	O36	0.893180	0.636350	0.258400
H281	H28	0.813100	0.629700	0.871800
H291	H29	0.812500	0.588200	0.657000
H301	H30	0.895500	0.606500	0.229200
Zn71	Zn7	0.546160	0.547980	0.779620
O371	O37	0.547180	0.616310	0.680800
O381	O38	0.601090	0.508360	0.553800
O391	O39	0.594690	0.547250	0.113600
O401	O40	0.449190	0.537660	0.831400
P131	P13	0.396650	0.500670	0.735350
C131	C13	0.314560	0.526460	0.815600
H311	H31	0.311800	0.558800	0.733900
H321	H32	0.313200	0.531400	0.005400
P141	P14	0.394720	0.354540	0.440690
C141	C14	0.314310	0.376320	0.317000
O411	O41	0.400740	0.300850	0.410000
O421	O42	0.393180	0.363650	0.741600
H331	H33	0.313100	0.370300	0.128200
H341	H34	0.312500	0.411800	0.343000
H351	H35	0.395500	0.393500	0.770800
Zn81	Zn8	0.953840	0.952020	0.779620
O431	O43	0.952820	0.883690	0.680800
O441	O44	0.898910	0.991640	0.553800
O451	O45	0.905310	0.952750	0.113600
O461	O46	0.050810	0.962340	0.831400
P151	P15	0.103350	0.999330	0.735350
C151	C15	0.185440	0.973540	0.815600
H361	H36	0.188200	0.941200	0.733900
H371	H37	0.186800	0.968600	0.005400
P161	P16	0.105280	0.145460	0.440690
C161	C16	0.185690	0.123680	0.317000
O471	O47	0.099260	0.199150	0.410000
O481	O48	0.106820	0.136350	0.741600
H381	H38	0.186900	0.129700	0.128200
H391	H39	0.187500	0.088200	0.343000
H401	H40	0.104500	0.106500	0.770800
C171	C17	0.250000	0.002020	0.737900
H411	H41	0.250000	0.033900	0.825100
H421	H42	0.250000	0.007500	0.548500
C181	C18	0.250000	0.145970	0.437700
H431	H43	0.250000	0.181400	0.408600
H441	H44	0.250000	0.140100	0.626800
C191	C19	0.250000	0.497980	0.737900
H451	H45	0.250000	0.466100	0.825100
H461	H46	0.250000	0.492500	0.548500
C201	C20	0.250000	0.354030	0.437700
H471	H47	0.250000	0.318600	0.408600
H481	H48	0.250000	0.359900	0.626800
C211	C21	0.750000	0.502020	0.262100
H491	H49	0.750000	0.533900	0.174900
H501	H50	0.750000	0.507500	0.451500
C221	C22	0.750000	0.645970	0.562300
H511	H51	0.750000	0.681400	0.591400
H521	H52	0.750000	0.640100	0.373200
C231	C23	0.750000	0.997980	0.262100
H531	H53	0.750000	0.966100	0.174900
H541	H54	0.750000	0.992500	0.451500
C241	C24	0.750000	0.854030	0.562300
H551	H55	0.750000	0.818600	0.591400
H561	H56	0.750000	0.859900	0.373200
Zn91	Zn9	0.450090	0.250000	0.205590
Zn101	Zn10	0.049910	0.250000	0.205590
Zn111	Zn11	0.549910	0.750000	0.794410
Zn121	Zn12	0.950090	0.750000	0.794410
