data_VOPCEK_clean_PM
_symmetry_space_group_name_H-M	'P1'
_cell_length_a	27.541000
_cell_length_b	11.126000
_cell_length_c	16.991000
_cell_angle_alpha	90.000000
_cell_angle_beta	99.010000
_cell_angle_gamma	90.000000
_symmetry_Int_Tables_number 1

loop_
_symmetry_equiv_pos_as_xyz
'x,y,z'

loop_
_atom_site_label
_atom_site_type_symbol
_atom_site_fract_x
_atom_site_fract_y
_atom_site_fract_z
Ce11	Ce1	0.252160	0.632100	0.690400
Ce21	Ce2	0.251190	0.673890	0.973350
C11	C1	0.176900	0.875000	0.625100
C21	C2	0.128100	0.914000	0.639800
C31	C3	0.108600	0.872000	0.704600
H11	H1	0.126900	0.820400	0.741200
C41	C4	0.062400	0.905000	0.714500
H21	H2	0.049200	0.876100	0.758000
C51	C5	0.034800	0.981000	0.661300
C61	C6	0.098800	0.993300	0.591200
H31	H3	0.111900	0.026500	0.548900
C71	C7	0.983200	0.010000	0.666500
C81	C8	0.952700	0.060600	0.604700
H41	H4	0.964900	0.083500	0.558800
C91	C9	0.919700	0.996000	0.738500
H51	H5	0.908500	0.974900	0.785600
C101	C10	0.886400	0.046700	0.679600
C111	C11	0.905100	0.077300	0.610000
H61	H6	0.884200	0.109700	0.566900
C121	C12	0.834300	0.065500	0.688000
C131	C13	0.329000	0.587900	0.548100
C141	C14	0.380300	0.558000	0.533400
C151	C15	0.410000	0.473700	0.577700
H71	H7	0.397400	0.432700	0.617800
C161	C16	0.446200	0.591100	0.459400
H81	H8	0.458600	0.631700	0.419000
C171	C17	0.474300	0.510800	0.505500
C181	C18	0.399600	0.612000	0.472500
H91	H9	0.380000	0.664900	0.439000
C191	C19	0.025400	0.980000	0.998100
C201	C20	0.036600	0.918000	0.933100
H101	H10	0.011900	0.898900	0.891200
C211	C21	0.084100	0.884000	0.930100
H111	H11	0.092200	0.847000	0.884700
C221	C22	0.120200	0.905000	0.996300
C231	C23	0.106100	0.973000	0.058200
H121	H12	0.130300	0.995400	0.100100
C241	C24	0.170600	0.864000	0.996700
C251	C25	0.338100	0.587200	0.858300
C261	C26	0.391400	0.578100	0.852300
C271	C27	0.428200	0.596700	0.916000
H131	H13	0.420200	0.619800	0.964900
C281	C28	0.476500	0.581600	0.907900
H141	H14	0.501100	0.592400	0.951500
C291	C29	0.488400	0.550500	0.835300
C301	C30	0.406900	0.558800	0.779100
H151	H15	0.383200	0.556000	0.733600
C311	C31	0.538900	0.514100	0.827300
C321	C32	0.549500	0.473600	0.756100
H161	H16	0.527500	0.485300	0.709300
C331	C33	0.593400	0.415000	0.754900
H171	H17	0.600100	0.380500	0.707900
C341	C34	0.627900	0.407600	0.824800
C351	C35	0.616100	0.464500	0.892400
H181	H18	0.639500	0.466500	0.938200
C361	C36	0.674100	0.335600	0.826500
N11	N1	0.053400	0.026500	0.599800
N21	N2	0.966800	0.973000	0.733900
N31	N3	0.456200	0.448000	0.565500
N41	N4	0.060100	0.007000	0.060900
N51	N5	0.454100	0.544200	0.770600
N61	N6	0.572600	0.516200	0.894000
O11	O1	0.204600	0.820700	0.681400
O21	O2	0.188000	0.895900	0.556000
O31	O3	0.823300	0.079900	0.754600
O41	O4	0.803200	0.062800	0.624100
O51	O5	0.317900	0.561100	0.613800
O61	O6	0.300900	0.642400	0.491700
O71	O7	0.180600	0.811700	0.934500
O81	O8	0.201200	0.867200	0.059000
O91	O9	0.307100	0.549300	0.801300
O101	O10	0.327100	0.626000	0.921600
O111	O11	0.701800	0.325300	0.891300
O121	O12	0.681600	0.286100	0.763100
O131	O13	0.250900	0.775100	0.832700
H191	H19	0.279100	0.828100	0.837700
H201	H20	0.221900	0.825800	0.822800
Ce31	Ce3	0.747840	0.132100	0.809600
Ce41	Ce4	0.748810	0.173890	0.526650
C371	C37	0.823100	0.375000	0.874900
C381	C38	0.871900	0.414000	0.860200
C391	C39	0.891400	0.372000	0.795400
H211	H21	0.873100	0.320400	0.758800
C401	C40	0.937600	0.405000	0.785500
H221	H22	0.950800	0.376100	0.742000
C411	C41	0.965200	0.481000	0.838700
C421	C42	0.901200	0.493300	0.908800
H231	H23	0.888100	0.526500	0.951100
C431	C43	0.016800	0.510000	0.833500
C441	C44	0.047300	0.560600	0.895300
H241	H24	0.035100	0.583500	0.941200
C451	C45	0.080300	0.496000	0.761500
H251	H25	0.091500	0.474900	0.714400
C461	C46	0.113600	0.546700	0.820400
C471	C47	0.094900	0.577300	0.890000
H261	H26	0.115800	0.609700	0.933100
C481	C48	0.165700	0.565500	0.812000
C491	C49	0.671000	0.087900	0.951900
C501	C50	0.619700	0.058000	0.966600
C511	C51	0.590000	0.973700	0.922300
H271	H27	0.602600	0.932700	0.882200
C521	C52	0.553800	0.091100	0.040600
H281	H28	0.541400	0.131700	0.081000
C531	C53	0.525700	0.010800	0.994500
C541	C54	0.600400	0.112000	0.027500
H291	H29	0.620000	0.164900	0.061000
C551	C55	0.974600	0.480000	0.501900
C561	C56	0.963400	0.418000	0.566900
H301	H30	0.988100	0.398900	0.608800
C571	C57	0.915900	0.384000	0.569900
H311	H31	0.907800	0.347000	0.615300
C581	C58	0.879800	0.405000	0.503700
C591	C59	0.893900	0.473000	0.441800
H321	H32	0.869700	0.495400	0.399900
C601	C60	0.829400	0.364000	0.503300
C611	C61	0.661900	0.087200	0.641700
C621	C62	0.608600	0.078100	0.647700
C631	C63	0.571800	0.096700	0.584000
H331	H33	0.579800	0.119800	0.535100
C641	C64	0.523500	0.081600	0.592100
H341	H34	0.498900	0.092400	0.548500
C651	C65	0.511600	0.050500	0.664700
C661	C66	0.593100	0.058800	0.720900
H351	H35	0.616800	0.056000	0.766400
C671	C67	0.461100	0.014100	0.672700
C681	C68	0.450500	0.973600	0.743900
H361	H36	0.472500	0.985300	0.790700
C691	C69	0.406600	0.915000	0.745100
H371	H37	0.399900	0.880500	0.792100
C701	C70	0.372100	0.907600	0.675200
C711	C71	0.383900	0.964500	0.607600
H381	H38	0.360500	0.966500	0.561800
C721	C72	0.325900	0.835600	0.673500
N71	N7	0.946600	0.526500	0.900200
N81	N8	0.033200	0.473000	0.766100
N91	N9	0.543800	0.948000	0.934500
N101	N10	0.939900	0.507000	0.439100
N111	N11	0.545900	0.044200	0.729400
N121	N12	0.427400	0.016200	0.606000
O141	O14	0.795400	0.320700	0.818600
O151	O15	0.812000	0.395900	0.944000
O161	O16	0.176700	0.579900	0.745400
O171	O17	0.196800	0.562800	0.875900
O181	O18	0.682100	0.061100	0.886200
O191	O19	0.699100	0.142400	0.008300
O201	O20	0.819400	0.311700	0.565500
O211	O21	0.798800	0.367200	0.441000
O221	O22	0.692900	0.049300	0.698700
O231	O23	0.672900	0.126000	0.578400
O241	O24	0.298200	0.825300	0.608700
O251	O25	0.318400	0.786100	0.736900
O261	O26	0.749100	0.275100	0.667300
H391	H39	0.720900	0.328100	0.662300
H401	H40	0.778100	0.325800	0.677200
Ce51	Ce5	0.747840	0.367900	0.309600
Ce61	Ce6	0.748810	0.326110	0.026650
C731	C73	0.823100	0.125000	0.374900
C741	C74	0.871900	0.086000	0.360200
C751	C75	0.891400	0.128000	0.295400
H411	H41	0.873100	0.179600	0.258800
C761	C76	0.937600	0.095000	0.285500
H421	H42	0.950800	0.123900	0.242000
C771	C77	0.965200	0.019000	0.338700
C781	C78	0.901200	0.006700	0.408800
H431	H43	0.888100	0.973500	0.451100
C791	C79	0.016800	0.990000	0.333500
C801	C80	0.047300	0.939400	0.395300
H441	H44	0.035100	0.916500	0.441200
C811	C81	0.080300	0.004000	0.261500
H451	H45	0.091500	0.025100	0.214400
C821	C82	0.113600	0.953300	0.320400
C831	C83	0.094900	0.922700	0.390000
H461	H46	0.115800	0.890300	0.433100
C841	C84	0.165700	0.934500	0.312000
C851	C85	0.671000	0.412100	0.451900
C861	C86	0.619700	0.442000	0.466600
C871	C87	0.590000	0.526300	0.422300
H471	H47	0.602600	0.567300	0.382200
C881	C88	0.553800	0.408900	0.540600
H481	H48	0.541400	0.368300	0.581000
C891	C89	0.525700	0.489200	0.494500
C901	C90	0.600400	0.388000	0.527500
H491	H49	0.620000	0.335100	0.561000
C911	C91	0.974600	0.020000	0.001900
C921	C92	0.963400	0.082000	0.066900
H501	H50	0.988100	0.101100	0.108800
C931	C93	0.915900	0.116000	0.069900
H511	H51	0.907800	0.153000	0.115300
C941	C94	0.879800	0.095000	0.003700
C951	C95	0.893900	0.027000	0.941800
H521	H52	0.869700	0.004600	0.899900
C961	C96	0.829400	0.136000	0.003300
C971	C97	0.661900	0.412800	0.141700
C981	C98	0.608600	0.421900	0.147700
C991	C99	0.571800	0.403300	0.084000
H531	H53	0.579800	0.380200	0.035100
C1001	C100	0.523500	0.418400	0.092100
H541	H54	0.498900	0.407600	0.048500
C1011	C101	0.511600	0.449500	0.164700
C1021	C102	0.593100	0.441200	0.220900
H551	H55	0.616800	0.444000	0.266400
C1031	C103	0.461100	0.485900	0.172700
C1041	C104	0.450500	0.526400	0.243900
H561	H56	0.472500	0.514700	0.290700
C1051	C105	0.406600	0.585000	0.245100
H571	H57	0.399900	0.619500	0.292100
C1061	C106	0.372100	0.592400	0.175200
C1071	C107	0.383900	0.535500	0.107600
H581	H58	0.360500	0.533500	0.061800
C1081	C108	0.325900	0.664400	0.173500
N131	N13	0.946600	0.973500	0.400200
N141	N14	0.033200	0.027000	0.266100
N151	N15	0.543800	0.552000	0.434500
N161	N16	0.939900	0.993000	0.939100
N171	N17	0.545900	0.455800	0.229400
N181	N18	0.427400	0.483800	0.106000
O271	O27	0.795400	0.179300	0.318600
O281	O28	0.812000	0.104100	0.444000
O291	O29	0.176700	0.920100	0.245400
O301	O30	0.196800	0.937200	0.375900
O311	O31	0.682100	0.438900	0.386200
O321	O32	0.699100	0.357600	0.508300
O331	O33	0.819400	0.188300	0.065500
O341	O34	0.798800	0.132800	0.941000
O351	O35	0.692900	0.450700	0.198700
O361	O36	0.672900	0.374000	0.078400
O371	O37	0.298200	0.674700	0.108700
O381	O38	0.318400	0.713900	0.236900
O391	O39	0.749100	0.224900	0.167300
H591	H59	0.720900	0.171900	0.162300
H601	H60	0.778100	0.174200	0.177200
Ce71	Ce7	0.252160	0.867900	0.190400
Ce81	Ce8	0.251190	0.826110	0.473350
C1091	C109	0.176900	0.625000	0.125100
C1101	C110	0.128100	0.586000	0.139800
C1111	C111	0.108600	0.628000	0.204600
H611	H61	0.126900	0.679600	0.241200
C1121	C112	0.062400	0.595000	0.214500
H621	H62	0.049200	0.623900	0.258000
C1131	C113	0.034800	0.519000	0.161300
C1141	C114	0.098800	0.506700	0.091200
H631	H63	0.111900	0.473500	0.048900
C1151	C115	0.983200	0.490000	0.166500
C1161	C116	0.952700	0.439400	0.104700
H641	H64	0.964900	0.416500	0.058800
C1171	C117	0.919700	0.504000	0.238500
H651	H65	0.908500	0.525100	0.285600
C1181	C118	0.886400	0.453300	0.179600
C1191	C119	0.905100	0.422700	0.110000
H661	H66	0.884200	0.390300	0.066900
C1201	C120	0.834300	0.434500	0.188000
C1211	C121	0.329000	0.912100	0.048100
C1221	C122	0.380300	0.942000	0.033400
C1231	C123	0.410000	0.026300	0.077700
H671	H67	0.397400	0.067300	0.117800
C1241	C124	0.446200	0.908900	0.959400
H681	H68	0.458600	0.868300	0.919000
C1251	C125	0.474300	0.989200	0.005500
C1261	C126	0.399600	0.888000	0.972500
H691	H69	0.380000	0.835100	0.939000
C1271	C127	0.025400	0.520000	0.498100
C1281	C128	0.036600	0.582000	0.433100
H701	H70	0.011900	0.601100	0.391200
C1291	C129	0.084100	0.616000	0.430100
H711	H71	0.092200	0.653000	0.384700
C1301	C130	0.120200	0.595000	0.496300
C1311	C131	0.106100	0.527000	0.558200
H721	H72	0.130300	0.504600	0.600100
C1321	C132	0.170600	0.636000	0.496700
C1331	C133	0.338100	0.912800	0.358300
C1341	C134	0.391400	0.921900	0.352300
C1351	C135	0.428200	0.903300	0.416000
H731	H73	0.420200	0.880200	0.464900
C1361	C136	0.476500	0.918400	0.407900
H741	H74	0.501100	0.907600	0.451500
C1371	C137	0.488400	0.949500	0.335300
C1381	C138	0.406900	0.941200	0.279100
H751	H75	0.383200	0.944000	0.233600
C1391	C139	0.538900	0.985900	0.327300
C1401	C140	0.549500	0.026400	0.256100
H761	H76	0.527500	0.014700	0.209300
C1411	C141	0.593400	0.085000	0.254900
H771	H77	0.600100	0.119500	0.207900
C1421	C142	0.627900	0.092400	0.324800
C1431	C143	0.616100	0.035500	0.392400
H781	H78	0.639500	0.033500	0.438200
C1441	C144	0.674100	0.164400	0.326500
N191	N19	0.053400	0.473500	0.099800
N201	N20	0.966800	0.527000	0.233900
N211	N21	0.456200	0.052000	0.065500
N221	N22	0.060100	0.493000	0.560900
N231	N23	0.454100	0.955800	0.270600
N241	N24	0.572600	0.983800	0.394000
O401	O40	0.204600	0.679300	0.181400
O411	O41	0.188000	0.604100	0.056000
O421	O42	0.823300	0.420100	0.254600
O431	O43	0.803200	0.437200	0.124100
O441	O44	0.317900	0.938900	0.113800
O451	O45	0.300900	0.857600	0.991700
O461	O46	0.180600	0.688300	0.434500
O471	O47	0.201200	0.632800	0.559000
O481	O48	0.307100	0.950700	0.301300
O491	O49	0.327100	0.874000	0.421600
O501	O50	0.701800	0.174700	0.391300
O511	O51	0.681600	0.213900	0.263100
O521	O52	0.250900	0.724900	0.332700
H791	H79	0.279100	0.671900	0.337700
H801	H80	0.221900	0.674200	0.322800
