data_VOPCIO_clean_PM
_symmetry_space_group_name_H-M	'P1'
_cell_length_a	16.913300
_cell_length_b	28.740000
_cell_length_c	29.940400
_cell_angle_alpha	118.682000
_cell_angle_beta	97.426200
_cell_angle_gamma	90.000000
_symmetry_Int_Tables_number 1

loop_
_symmetry_equiv_pos_as_xyz
'x,y,z'

loop_
_atom_site_label
_atom_site_type_symbol
_atom_site_fract_x
_atom_site_fract_y
_atom_site_fract_z
Ce11	Ce1	0.881530	0.286060	0.005460
Ce21	Ce2	0.118470	0.713940	0.994540
Ce31	Ce3	0.540460	0.729160	0.500320
Ce41	Ce4	0.040460	0.771160	0.500320
Ce51	Ce5	0.619270	0.775930	0.999400
Ce61	Ce6	0.762940	0.795790	0.501700
Ce71	Ce7	0.381530	0.719400	0.005460
Ce81	Ce8	0.459540	0.270840	0.499680
Ce91	Ce9	0.262940	0.705910	0.501700
Ce101	Ce10	0.119270	0.223470	0.999400
Ce111	Ce11	0.959540	0.228840	0.499680
Ce121	Ce12	0.380730	0.224070	0.000600
Ce131	Ce13	0.737060	0.294090	0.498300
Ce141	Ce14	0.880730	0.776530	0.000600
Ce151	Ce15	0.237060	0.204210	0.498300
Ce161	Ce16	0.618470	0.280600	0.994540
H11	H1	0.815500	0.403000	0.618000
H21	H2	0.643200	0.640400	0.878400
H31	H3	0.804300	0.048700	0.764400
H41	H4	0.756400	0.210200	0.025200
H51	H5	0.046800	0.395100	0.657000
H61	H6	0.382400	0.536400	0.790400
H71	H7	0.467500	0.727700	0.124800
H81	H8	0.877200	0.114600	0.389200
H91	H9	0.465400	0.051200	0.870200
H101	H10	0.353400	0.019700	0.793600
H111	H11	0.322000	0.741700	0.378800
H121	H12	0.840900	0.557400	0.304200
H131	H13	0.100600	0.788200	0.364400
H141	H14	0.123500	0.966400	0.685000
H151	H15	0.844700	0.780400	0.874200
H161	H16	0.515100	0.803500	0.758800
H171	H17	0.655300	0.906200	0.125800
H181	H18	0.143200	0.238000	0.878400
H191	H19	0.546800	0.261900	0.657000
H201	H20	0.032500	0.602900	0.875200
H211	H21	0.459200	0.731200	0.261800
H221	H22	0.972300	0.897400	0.110600
H231	H23	0.621800	0.715400	0.820600
H241	H24	0.959200	0.530600	0.261800
H251	H25	0.835100	0.772700	0.201400
H261	H26	0.378200	0.284600	0.179400
H271	H27	0.697500	0.778500	0.164200
H281	H28	0.256400	0.815000	0.025200
H291	H29	0.953200	0.604900	0.343000
H301	H30	0.315500	0.215000	0.618000
H311	H31	0.869300	0.406100	0.181400
H321	H32	0.751600	0.678400	0.979800
H331	H33	0.648300	0.122200	0.341400
H341	H34	0.804500	0.543300	0.754000
H351	H35	0.344700	0.093800	0.874200
H361	H36	0.139400	0.723700	0.868400
H371	H37	0.622800	0.725400	0.610800
H381	H38	0.015100	0.955300	0.758800
H391	H39	0.503100	0.573600	0.266800
H401	H40	0.302500	0.221500	0.835800
H411	H41	0.989400	0.791500	0.722600
H421	H42	0.484900	0.196500	0.241200
H431	H43	0.040800	0.469400	0.738200
H441	H44	0.882400	0.254000	0.790400
H451	H45	0.878200	0.894800	0.179400
H461	H46	0.991700	0.716700	0.352200
H471	H47	0.295700	0.550400	0.340600
H481	H48	0.029200	0.665800	0.120600
H491	H49	0.470800	0.545200	0.879400
H501	H50	0.975600	0.115500	0.323400
H511	H51	0.034600	0.181000	0.129800
H521	H52	0.659100	0.253200	0.695800
H531	H53	0.524400	0.792100	0.676600
H541	H54	0.198000	0.696600	0.649600
H551	H55	0.899400	0.211800	0.635600
H561	H56	0.362500	0.602500	0.872200
H571	H57	0.802000	0.303400	0.350400
H581	H58	0.637500	0.397500	0.127800
H591	H59	0.251600	0.301400	0.979800
H601	H60	0.965400	0.819000	0.870200
H611	H61	0.475600	0.207900	0.323400
H621	H62	0.340900	0.746800	0.304200
H631	H63	0.684500	0.785000	0.382000
H641	H64	0.510600	0.068900	0.277400
H651	H65	0.494200	0.135600	0.360000
H661	H66	0.178000	0.362900	0.621200
H671	H67	0.155300	0.219600	0.125800
H681	H68	0.130700	0.593900	0.818600
H691	H69	0.795700	0.790200	0.340600
H701	H70	0.656300	0.077300	0.787000
H711	H71	0.678000	0.258300	0.621200
H721	H72	0.646600	0.980300	0.206400
H731	H73	0.156300	0.709700	0.787000
H741	H74	0.195700	0.951300	0.235600
H751	H75	0.360600	0.855300	0.131600
H761	H76	0.308100	0.710300	0.839200
H771	H77	0.673400	0.305500	0.379600
H781	H78	0.472300	0.213200	0.110600
H791	H79	0.137500	0.730300	0.127800
H801	H80	0.617600	0.463600	0.209600
H811	H81	0.743600	0.185000	0.974800
H821	H82	0.326600	0.694500	0.620400
H831	H83	0.010600	0.208500	0.277400
H841	H84	0.496900	0.426400	0.733200
H851	H85	0.695700	0.284300	0.235600
H861	H86	0.159100	0.442600	0.695800
H871	H87	0.377200	0.274600	0.389200
H881	H88	0.630700	0.224700	0.818600
H891	H89	0.243600	0.789800	0.974800
H901	H90	0.534600	0.948800	0.129800
H911	H91	0.376500	0.281400	0.315000
H921	H92	0.862500	0.269700	0.872200
H931	H93	0.343700	0.922700	0.213000
H941	H94	0.122800	0.885400	0.610800
H951	H95	0.967500	0.397100	0.124800
H961	H96	0.121800	0.105200	0.820600
H971	H97	0.369300	0.775300	0.181400
H981	H98	0.148300	0.219200	0.341400
H991	H99	0.851700	0.780800	0.658600
H1001	H100	0.639400	0.144700	0.868400
H1011	H101	0.164900	0.227300	0.798600
H1021	H102	0.996900	0.306800	0.733200
H1031	H103	0.970800	0.334200	0.879400
H1041	H104	0.802500	0.614300	0.835800
H1051	H105	0.698000	0.953000	0.649600
H1061	H106	0.748400	0.698600	0.020200
H1071	H107	0.822000	0.637100	0.378800
H1081	H108	0.356800	0.359600	0.121600
H1091	H109	0.860600	0.276300	0.131600
H1101	H110	0.623500	0.718600	0.685000
H1111	H111	0.453200	0.738100	0.343000
H1121	H112	0.853400	0.773900	0.793600
H1131	H113	0.540800	0.268800	0.738200
H1141	H114	0.024400	0.884500	0.676600
H1151	H115	0.527700	0.786800	0.889400
H1161	H116	0.304500	0.210700	0.754000
H1171	H117	0.146600	0.226100	0.206400
H1181	H118	0.984900	0.044700	0.241200
H1191	H119	0.197500	0.385700	0.164200
H1201	H120	0.304300	0.715700	0.764400
H1211	H121	0.195500	0.456700	0.246000
H1221	H122	0.204300	0.209800	0.659400
H1231	H123	0.508300	0.364500	0.647800
H1241	H124	0.505800	0.864400	0.640000
H1251	H125	0.664900	0.571300	0.798600
H1261	H126	0.351700	0.877800	0.658600
H1271	H127	0.005800	0.775600	0.640000
H1281	H128	0.843700	0.290300	0.213000
H1291	H129	0.302000	0.047000	0.350400
H1301	H130	0.027700	0.102600	0.889400
H1311	H131	0.008300	0.283300	0.647800
H1321	H132	0.248400	0.321600	0.020200
H1331	H133	0.003100	0.693200	0.266800
H1341	H134	0.529200	0.454800	0.120600
H1351	H135	0.117600	0.746000	0.209600
H1361	H136	0.184500	0.597000	0.382000
H1371	H137	0.335100	0.428700	0.201400
H1381	H138	0.808100	0.128900	0.839200
H1391	H139	0.994200	0.224400	0.360000
H1401	H140	0.532500	0.272300	0.875200
H1411	H141	0.691900	0.289700	0.160800
H1421	H142	0.876500	0.033600	0.315000
H1431	H143	0.704300	0.449600	0.659400
H1441	H144	0.191900	0.871100	0.160800
H1451	H145	0.399400	0.423800	0.635600
H1461	H146	0.856800	0.762000	0.121600
H1471	H147	0.173400	0.074100	0.379600
H1481	H148	0.600600	0.576200	0.364400
H1491	H149	0.826600	0.925900	0.620400
H1501	H150	0.491700	0.635500	0.352200
H1511	H151	0.695500	0.789300	0.246000
H1521	H152	0.489400	0.931100	0.722600
C11	C1	0.845700	0.283700	0.335800
C21	C2	0.805100	0.763100	0.800000
C31	C3	0.582300	0.248100	0.266000
C41	C4	0.170500	0.947600	0.679000
C51	C5	0.986100	0.590600	0.850000
C61	C6	0.611300	0.607700	0.863000
C71	C7	0.738900	0.744000	0.762800
C81	C8	0.082800	0.752400	0.731600
C91	C9	0.042000	0.762800	0.657800
C101	C10	0.243100	0.602860	0.852920
C111	C11	0.345700	0.052100	0.335800
C121	C12	0.426800	0.976150	0.216500
C131	C13	0.415500	0.752000	0.783200
C141	C14	0.763000	0.128040	0.372080
C151	C15	0.111300	0.255300	0.863000
C161	C16	0.803800	0.768200	0.664000
C171	C17	0.074100	0.101700	0.359600
C181	C18	0.781300	0.850100	0.092600
C191	C19	0.548300	0.105270	0.877140
C201	C20	0.417200	0.020800	0.268400
C211	C21	0.270900	0.475900	0.709000
C221	C22	0.106900	0.740300	0.852600
C231	C23	0.577300	0.257670	0.082140
C241	C24	0.917200	0.247600	0.268400
C251	C25	0.800100	0.766600	0.847600
C261	C26	0.118100	0.732900	0.805000
C271	C27	0.739100	0.763130	0.581860
C281	C28	0.169800	0.749500	0.202600
C291	C29	0.495500	0.255900	0.712200
C301	C30	0.169700	0.899500	0.635400
C311	C31	0.447700	0.398260	0.112720
C321	C32	0.281300	0.242500	0.092600
C331	C33	0.273700	0.737850	0.094500
C341	C34	0.578400	0.759200	0.230200
C351	C35	0.073800	0.519600	0.280800
C361	C36	0.407400	0.524300	0.256600
C371	C37	0.647500	0.273600	0.166000
C381	C38	0.756900	0.397140	0.147080
C391	C39	0.458000	0.105000	0.342200
C401	C40	0.388700	0.392300	0.137000
C411	C41	0.513900	0.740600	0.150000
C421	C42	0.109400	0.246000	0.646000
C431	C43	0.209100	0.437400	0.683400
C441	C44	0.218700	0.149900	0.907400
C451	C45	0.451700	0.894730	0.122860
C461	C46	0.330200	0.546900	0.797400
C471	C47	0.350800	0.224200	0.779400
C481	C48	0.077300	0.824470	0.082140
C491	C49	0.004500	0.543700	0.287800
C501	C50	0.486100	0.259400	0.850000
C511	C51	0.418400	0.480500	0.204800
C521	C52	0.888700	0.744700	0.137000
C531	C53	0.654300	0.947900	0.664200
C541	C54	0.607600	0.901200	0.635400
C551	C55	0.329500	0.268600	0.321000
C561	C56	0.390600	0.600000	0.354000
C571	C57	0.350600	0.426400	0.649000
C581	C58	0.578600	0.758360	0.089720
C591	C59	0.930000	0.390200	0.629200
C601	C60	0.881900	0.267100	0.195000
C611	C61	0.719800	0.248700	0.639000
C621	C62	0.081000	0.381500	0.140000
C631	C63	0.738200	0.745000	0.713200
C641	C64	0.425900	0.742100	0.640400
C651	C65	0.737000	0.755960	0.627920
C661	C66	0.421600	0.240800	0.769800
C671	C67	0.461400	0.568700	0.282800
C681	C68	0.260900	0.236870	0.418140
C691	C69	0.107600	0.734200	0.635400
C701	C70	0.426200	0.238800	0.719200
C711	C71	0.818100	0.419700	0.187000
C721	C72	0.718700	0.757500	0.907400
C731	C73	0.504500	0.744100	0.287800
C741	C74	0.893100	0.259700	0.147400
C751	C75	0.538600	0.431300	0.717200
C761	C76	0.318100	0.767300	0.187000
C771	C77	0.256900	0.749940	0.147080
C781	C78	0.780200	0.609700	0.361000
C791	C79	0.961400	0.714100	0.282800
C801	C80	0.852500	0.107600	0.834000
C811	C81	0.238200	0.968200	0.713200
C821	C82	0.417700	0.751900	0.734000
C831	C83	0.661200	0.445000	0.674600
C841	C84	0.851100	0.598200	0.826400
C851	C85	0.118400	0.228100	0.590400
C861	C86	0.154300	0.716300	0.664200
C871	C87	0.290900	0.754000	0.316600
C881	C88	0.764800	0.237200	0.759600
C891	C89	0.048300	0.771870	0.877140
C901	C90	0.925900	0.898300	0.640400
C911	C91	0.005700	0.796950	0.853300
C921	C92	0.581600	0.519500	0.795200
C931	C93	0.649700	0.270800	0.210000
C941	C94	0.625200	0.566500	0.816000
C951	C95	0.634300	0.283100	0.351200
C961	C96	0.850800	0.555200	0.779400
C971	C97	0.760900	0.181270	0.418140
C981	C98	0.770900	0.233100	0.709000
C991	C99	0.669800	0.453100	0.202600
C1001	C100	0.570000	0.761000	0.370800
C1011	C101	0.829500	0.052400	0.321000
C1021	C102	0.433200	0.731160	0.587320
C1031	C103	0.694900	0.963100	0.200000
C1041	C104	0.363200	0.225500	0.642200
C1051	C105	0.761100	0.981200	0.237200
C1061	C106	0.264800	0.522400	0.759600
C1071	C107	0.226300	0.643350	0.905500
C1081	C108	0.669300	0.728820	0.815640
C1091	C109	0.147500	0.892400	0.166000
C1101	C110	0.194900	0.236900	0.200000
C1111	C111	0.552300	0.601740	0.887280
C1121	C112	0.134300	0.068100	0.351200
C1131	C113	0.573800	0.761200	0.280800
C1141	C114	0.031700	0.776830	0.927860
C1151	C115	0.933200	0.856160	0.587320
C1161	C116	0.419000	0.241500	0.860000
C1171	C117	0.432900	0.238100	0.579200
C1181	C118	0.649400	0.573600	0.351000
C1191	C119	0.421400	0.241640	0.910280
C1201	C120	0.618100	0.072100	0.805000
C1211	C121	0.982000	0.907400	0.681400
C1221	C122	0.681200	0.413300	0.154800
C1231	C123	0.681900	0.232700	0.813000
C1241	C124	0.994300	0.203050	0.146700
C1251	C125	0.161200	0.229600	0.674600
C1261	C126	0.011100	0.311770	0.862940
C1271	C127	0.352500	0.726400	0.834000
C1281	C128	0.790900	0.562600	0.316600
C1291	C129	0.918400	0.724300	0.204800
C1301	C130	0.191300	0.760750	0.425500
C1311	C131	0.181200	0.741500	0.154800
C1321	C132	0.522400	0.219700	0.270200
C1331	C133	0.953500	0.726800	0.332800
C1341	C134	0.013900	0.409400	0.150000
C1351	C135	0.830300	0.100500	0.364600
C1361	C136	0.032100	0.771700	0.706600
C1371	C137	0.084500	0.968800	0.216800
C1381	C138	0.865700	0.931900	0.648800
C1391	C139	0.300100	0.081000	0.847600
C1401	C140	0.792600	0.237000	0.622000
C1411	C141	0.977600	0.949500	0.729800
C1421	C142	0.149700	0.939200	0.210000
C1431	C143	0.670500	0.731400	0.679000
C1441	C144	0.542000	0.895000	0.657800
C1451	C145	0.497800	0.253500	0.664800
C1461	C146	0.830200	0.250500	0.797400
C1471	C147	0.730200	0.749690	0.855380
C1481	C148	0.381900	0.927900	0.195000
C1491	C149	0.488900	0.448830	0.137060
C1501	C150	0.531700	0.151030	0.927860
C1511	C151	0.669700	0.735900	0.635400
C1521	C152	0.261100	0.256000	0.237200
C1531	C153	0.947700	0.714460	0.112720
C1541	C154	0.707400	0.615000	0.378000
C1551	C155	0.582800	0.979200	0.731600
C1561	C156	0.238900	0.018800	0.762800
C1571	C157	0.649200	0.775800	0.220600
C1581	C158	0.239100	0.818730	0.581860
C1591	C159	0.995500	0.456300	0.712200
C1601	C160	0.967900	0.228300	0.293400
C1611	C161	0.532100	0.934900	0.706600
C1621	C162	0.967000	0.711190	0.063780
C1631	C163	0.330300	0.264100	0.364600
C1641	C164	0.761800	0.031800	0.286800
C1651	C165	0.573200	0.023850	0.783500
C1661	C166	0.477600	0.780300	0.729800
C1671	C167	0.169300	0.086820	0.815640
C1681	C168	0.618400	0.362300	0.590400
C1691	C169	0.918800	0.124160	0.870720
C1701	C170	0.303800	0.895800	0.664000
C1711	C171	0.729100	0.524100	0.291000
C1721	C172	0.850300	0.060800	0.790000
C1731	C173	0.818800	0.258500	0.845200
C1741	C174	0.148900	0.401800	0.173600
C1751	C175	0.915500	0.031200	0.783200
C1761	C176	0.374800	0.433500	0.184000
C1771	C177	0.430000	0.239000	0.629200
C1781	C178	0.149400	0.777400	0.351000
C1791	C179	0.648900	0.771800	0.173600
C1801	C180	0.229100	0.766900	0.291000
C1811	C181	0.467900	0.065100	0.293400
C1821	C182	0.196200	0.231800	0.336000
C1831	C183	0.743100	0.250060	0.852920
C1841	C184	0.881600	0.771900	0.409600
C1851	C185	0.418800	0.746560	0.870720
C1861	C186	0.592600	0.475700	0.743400
C1871	C187	0.968300	0.223170	0.072140
C1881	C188	0.696200	0.104200	0.336000
C1891	C189	0.038600	0.285900	0.717200
C1901	C190	0.002200	0.588700	0.335200
C1911	C191	0.907400	0.732300	0.256600
C1921	C192	0.046500	0.273200	0.667200
C1931	C193	0.136800	0.583300	0.357800
C1941	C194	0.636800	0.774500	0.357800
C1951	C195	0.951700	0.228130	0.122860
C1961	C196	0.517700	0.227960	0.136520
C1971	C197	0.078400	0.471000	0.230200
C1981	C198	0.769800	0.894310	0.144620
C1991	C199	0.066800	0.143840	0.412680
C2001	C200	0.280200	0.751300	0.361000
C2011	C201	0.982300	0.091440	0.863480
C2021	C202	0.078600	0.331360	0.089720
C2031	C203	0.305100	0.036900	0.800000
C2041	C204	0.092600	0.267700	0.743400
C2051	C205	0.808700	0.239250	0.574500
C2061	C206	0.199900	0.233400	0.152400
C2071	C207	0.453500	0.606000	0.332800
C2081	C208	0.699900	0.919000	0.152400
C2091	C209	0.609400	0.400000	0.646000
C2101	C210	0.052300	0.285540	0.887280
C2111	C211	0.926200	0.480400	0.719200
C2121	C212	0.919000	0.618500	0.860000
C2131	C213	0.467000	0.352590	0.063780
C2141	C214	0.018000	0.092600	0.318600
C2151	C215	0.988900	0.688230	0.137060
C2161	C216	0.494300	0.943650	0.146700
C2171	C217	0.838800	0.770400	0.325400
C2181	C218	0.392400	0.098800	0.364600
C2191	C219	0.709100	0.246000	0.683400
C2201	C220	0.081200	0.875840	0.129280
C2211	C221	0.863200	0.416700	0.642200
C2221	C222	0.269800	0.250310	0.144620
C2231	C223	0.922700	0.175530	0.917860
C2241	C224	0.482000	0.774000	0.681400
C2251	C225	0.067100	0.658900	0.420800
C2261	C226	0.874800	0.750500	0.184000
C2271	C227	0.878600	0.276400	0.416400
C2281	C228	0.511100	0.551170	0.862940
C2291	C229	0.566800	0.268840	0.412680
C2301	C230	0.318800	0.586700	0.845200
C2311	C231	0.207400	0.763000	0.378000
C2321	C232	0.482300	0.772040	0.863480
C2331	C233	0.073200	0.759650	0.783500
C2341	C234	0.921600	0.529000	0.769800
C2351	C235	0.606900	0.112300	0.852600
C2361	C236	0.338800	0.555000	0.325400
C2371	C237	0.581000	0.758500	0.140000
C2381	C238	0.082300	0.017900	0.266000
C2391	C239	0.726300	0.262150	0.905500
C2401	C240	0.393100	0.887700	0.147400
C2411	C241	0.567100	0.761900	0.420800
C2421	C242	0.958000	0.237200	0.342200
C2431	C243	0.468300	0.848970	0.072140
C2441	C244	0.932900	0.341100	0.579200
C2451	C245	0.330700	0.271180	0.184360
C2461	C246	0.917700	0.982100	0.734000
C2471	C247	0.292600	0.385000	0.622000
C2481	C248	0.890600	0.754000	0.354000
C2491	C249	0.033000	0.288810	0.936220
C2501	C250	0.235200	0.762800	0.240400
C2511	C251	0.502200	0.746500	0.335200
C2521	C252	0.181900	0.580300	0.813000
C2531	C253	0.505700	0.056350	0.853300
C2541	C254	0.219800	0.390300	0.639000
C2551	C255	0.850600	0.222600	0.649000
C2561	C256	0.230200	0.105690	0.855380
C2571	C257	0.773700	0.356650	0.094500
C2581	C258	0.518000	0.226000	0.318600
C2591	C259	0.365700	0.716900	0.648800
C2601	C260	0.149200	0.444800	0.220600
C2611	C261	0.261800	0.255000	0.286800
C2621	C262	0.830700	0.913180	0.184360
C2631	C263	0.308700	0.335250	0.574500
C2641	C264	0.263000	0.244040	0.372080
C2651	C265	0.621400	0.860000	0.583600
C2661	C266	0.546500	0.394000	0.667200
C2671	C267	0.574100	0.257900	0.359600
C2681	C268	0.017700	0.908560	0.136520
C2691	C269	0.378600	0.140000	0.416400
C2701	C270	0.735200	0.477600	0.240400
C2711	C271	0.351100	0.228200	0.826400
C2721	C272	0.533000	0.647410	0.936220
C2731	C273	0.422700	0.742330	0.917860
C2741	C274	0.921400	0.668640	0.910280
C2751	C275	0.125200	0.249500	0.816000
C2761	C276	0.584500	0.248000	0.216800
C2771	C277	0.022400	0.050500	0.270200
C2781	C278	0.350300	0.729200	0.790000
C2791	C279	0.081600	0.275700	0.795200
C2801	C280	0.121400	0.723600	0.583600
C2811	C281	0.581200	0.253440	0.129280
C2821	C282	0.237000	0.871960	0.627920
C2831	C283	0.997800	0.411300	0.664800
C2841	C284	0.070000	0.609800	0.370800
C2851	C285	0.892400	0.265800	0.364600
C2861	C286	0.381600	0.637700	0.409600
C2871	C287	0.691300	0.664750	0.425500
C2881	C288	0.926800	0.240350	0.216500
N11	N1	0.345600	0.517290	0.277180
N21	N2	0.017500	0.792150	0.807500
N31	N3	0.982500	0.207850	0.192500
N41	N4	0.520000	0.223900	0.179400
N51	N5	0.158200	0.777000	0.306200
N61	N6	0.144300	0.723970	0.710940
N71	N7	0.809900	0.460400	0.234000
N81	N8	0.525200	0.510920	0.817840
N91	N9	0.194800	0.236400	0.293800
N101	N10	0.658200	0.529200	0.306200
N111	N11	0.154400	0.240110	0.722820
N121	N12	0.355700	0.013030	0.289060
N131	N13	0.513300	0.741000	0.195200
N141	N14	0.359300	0.722000	0.694200
N151	N15	0.482500	0.984650	0.192500
N161	N16	0.654400	0.482710	0.722820
N171	N17	0.640700	0.278000	0.305800
N181	N18	0.671600	0.725910	0.769420
N191	N19	0.859300	0.972200	0.694200
N201	N20	0.980000	0.044500	0.820600
N211	N21	0.517500	0.015350	0.807500
N221	N22	0.845600	0.759890	0.277180
N231	N23	0.644300	0.986970	0.710940
N241	N24	0.190100	0.539600	0.766000
N251	N25	0.855700	0.276030	0.289060
N261	N26	0.013300	0.454200	0.195200
N271	N27	0.486700	0.259000	0.804800
N281	N28	0.020000	0.955500	0.179400
N291	N29	0.690100	0.226400	0.766000
N301	N30	0.025200	0.306920	0.817840
N311	N31	0.694800	0.057400	0.293800
N321	N32	0.974800	0.693080	0.182160
N331	N33	0.805200	0.763600	0.706200
N341	N34	0.140700	0.027800	0.305800
N351	N35	0.841800	0.223000	0.693800
N361	N36	0.986700	0.545800	0.804800
N371	N37	0.328400	0.274090	0.230580
N381	N38	0.341800	0.470800	0.693800
N391	N39	0.305200	0.942600	0.706200
N401	N40	0.474800	0.489080	0.182160
N411	N41	0.480000	0.776100	0.820600
N421	N42	0.360300	0.226100	0.686800
N431	N43	0.139700	0.539300	0.313200
N441	N44	0.171600	0.043510	0.769420
N451	N45	0.309900	0.773600	0.234000
N461	N46	0.828400	0.956490	0.230580
N471	N47	0.860300	0.460700	0.686800
N481	N48	0.639700	0.773900	0.313200
O11	O1	0.383200	0.700530	0.550660
O21	O2	0.462800	0.647310	0.946020
O31	O3	0.629200	0.774460	0.451920
O41	O4	0.803900	0.783270	0.578940
O51	O5	0.860000	0.200920	0.924640
O61	O6	0.436000	0.173210	0.444020
O71	O7	0.723300	0.348060	0.055320
O81	O8	0.961200	0.788950	0.939900
O91	O9	0.503600	0.745120	0.426240
O101	O10	0.883200	0.850130	0.550660
O111	O11	0.486700	0.755980	0.950160
O121	O12	0.186800	0.222980	0.578360
O131	O13	0.493900	0.755000	0.583400
O141	O14	0.196100	0.216730	0.421060
O151	O15	0.223300	0.707260	0.055320
O161	O16	0.037200	0.701290	0.053980
O171	O17	0.858900	0.691930	0.919060
O181	O18	0.370800	0.225540	0.548080
O191	O19	0.993900	0.828400	0.583400
O201	O20	0.844700	0.827410	0.089620
O211	O21	0.877900	0.229650	0.563500
O221	O22	0.962800	0.298710	0.946020
O231	O23	0.322100	0.249060	0.451320
O241	O24	0.641100	0.772870	0.080940
O251	O25	0.177900	0.797740	0.548680
O261	O26	0.360000	0.723720	0.924640
O271	O27	0.377900	0.333850	0.563500
O281	O28	0.161200	0.664590	0.907980
O291	O29	0.227600	0.214370	0.055540
O301	O30	0.587200	0.184800	0.954800
O311	O31	0.813200	0.777020	0.421640
O321	O32	0.822100	0.202260	0.451320
O331	O33	0.116800	0.149870	0.449340
O341	O34	0.461200	0.150950	0.939900
O351	O35	0.188800	0.708260	0.570520
O361	O36	0.006100	0.171600	0.416600
O371	O37	0.588000	0.681340	0.962480
O381	O38	0.811200	0.291740	0.429480
O391	O39	0.412800	0.815200	0.045200
O401	O40	0.942200	0.779560	0.438920
O411	O41	0.772400	0.785630	0.944460
O421	O42	0.014200	0.314570	0.057740
O431	O43	0.514200	0.743170	0.057740
O441	O44	0.057800	0.220440	0.561080
O451	O45	0.344700	0.262210	0.089620
O461	O46	0.412000	0.318660	0.037520
O471	O47	0.513300	0.244020	0.049840
O481	O48	0.750000	0.724400	0.000000
O491	O49	0.496400	0.254880	0.573760
O501	O50	0.616800	0.299470	0.449340
O511	O51	0.838800	0.335410	0.092020
O521	O52	0.276700	0.651940	0.944680
O531	O53	0.247600	0.748000	0.447400
O541	O54	0.538800	0.849050	0.060100
O551	O55	0.013300	0.805820	0.049840
O561	O56	0.640000	0.276280	0.075360
O571	O57	0.250000	0.767700	0.000000
O581	O58	0.985800	0.685430	0.942260
O591	O59	0.996400	0.318880	0.573760
O601	O60	0.557800	0.340640	0.561080
O611	O61	0.485800	0.256830	0.942260
O621	O62	0.537200	0.352690	0.053980
O631	O63	0.599700	0.230510	0.496420
O641	O64	0.750000	0.232300	0.000000
O651	O65	0.912000	0.718860	0.037520
O661	O66	0.140000	0.799080	0.075360
O671	O67	0.155300	0.172590	0.910380
O681	O68	0.252400	0.300600	0.552600
O691	O69	0.870800	0.322540	0.548080
O701	O70	0.688800	0.862260	0.570520
O711	O71	0.003600	0.681120	0.426240
O721	O72	0.912800	0.230000	0.045200
O731	O73	0.338800	0.756610	0.092020
O741	O74	0.747600	0.699400	0.447400
O751	O75	0.141100	0.308070	0.080940
O761	O76	0.313200	0.644620	0.421640
O771	O77	0.686800	0.355380	0.578360
O781	O78	0.122100	0.770350	0.436500
O791	O79	0.129200	0.677460	0.451920
O801	O80	0.088000	0.281140	0.962480
O811	O81	0.250000	0.275600	0.000000
O821	O82	0.936000	0.270810	0.444020
O831	O83	0.661200	0.243390	0.907980
O841	O84	0.099700	0.265910	0.496420
O851	O85	0.064000	0.729190	0.555980
O861	O86	0.776700	0.292740	0.944680
O871	O87	0.400300	0.769490	0.503580
O881	O88	0.727600	0.841170	0.055540
O891	O89	0.303900	0.795670	0.578940
O901	O90	0.622100	0.666150	0.436500
O911	O91	0.358900	0.227130	0.919060
O921	O92	0.677900	0.750940	0.548680
O931	O93	0.986700	0.194180	0.950160
O941	O94	0.564000	0.826790	0.555980
O951	O95	0.696100	0.204330	0.421060
O961	O96	0.655300	0.737790	0.910380
O971	O97	0.311200	0.137740	0.429480
O981	O98	0.442200	0.659360	0.438920
O991	O99	0.272400	0.158830	0.944460
O1001	O100	0.900300	0.734090	0.503580
O1011	O101	0.087200	0.770000	0.954800
O1021	O102	0.038800	0.211050	0.060100
O1031	O103	0.752400	0.252000	0.552600
O1041	O104	0.506100	0.245000	0.416600
