data_VOPHUF_clean_PM
_symmetry_space_group_name_H-M	'P1'
_cell_length_a	10.111200
_cell_length_b	15.943000
_cell_length_c	16.764000
_cell_angle_alpha	111.325000
_cell_angle_beta	103.680000
_cell_angle_gamma	102.598000
_symmetry_Int_Tables_number 1

loop_
_symmetry_equiv_pos_as_xyz
'x,y,z'

loop_
_atom_site_label
_atom_site_type_symbol
_atom_site_fract_x
_atom_site_fract_y
_atom_site_fract_z
Co11	Co1	0.424360	0.376570	0.592350
N11	N1	0.510400	0.435600	0.740200
O11	O1	0.766400	0.705000	0.067300
C11	C1	0.626700	0.513900	0.791800
H11	H1	0.673600	0.543500	0.762600
Co21	Co2	0.677890	0.206040	0.592810
N21	N2	0.803500	0.638100	0.932800
H21	H2	0.863500	0.644900	0.905000
O21	O2	0.214500	0.953900	0.113800
C21	C2	0.681500	0.553800	0.886300
N31	N3	0.273600	0.965600	0.256900
H31	H3	0.243700	0.941800	0.290500
O31	O3	0.788000	0.392200	0.081700
C31	C3	0.615900	0.506600	0.929600
H41	H4	0.652800	0.528600	0.992600
N41	N4	0.595900	0.144900	0.445400
O41	O4	0.365600	0.192100	0.113600
C41	C4	0.494500	0.426300	0.876400
H51	H5	0.447700	0.394000	0.903700
O51	O5	0.619900	0.450300	0.596400
N51	N5	0.762000	0.280800	0.741200
C51	C5	0.443200	0.394000	0.783500
H61	H6	0.358800	0.341600	0.749200
N61	N6	0.661800	0.281900	0.936400
H71	H7	0.585500	0.232300	0.903600
O61	O6	0.707100	0.334600	0.592400
C61	C6	0.836000	0.709700	0.017400
O71	O7	0.206400	0.366900	0.590100
N71	N7	0.461900	0.312000	0.258000
H81	H8	0.528300	0.366800	0.291900
C71	C7	0.965300	0.795500	0.044300
H91	H9	0.034200	0.773700	0.018000
H101	H10	0.934100	0.836000	0.018100
O81	O8	0.349900	0.501700	0.611200
N81	N8	0.342400	0.305400	0.444800
C81	C8	0.040600	0.854500	0.145800
H111	H11	0.056900	0.812400	0.174000
H121	H12	0.978300	0.886400	0.170900
O91	O9	0.488200	0.136500	0.598700
C91	C9	0.183900	0.928800	0.169700
C101	C10	0.409800	0.037900	0.299900
O101	O10	0.391800	0.244200	0.586400
O111	O11	0.891800	0.211100	0.587000
C111	C11	0.491000	0.073900	0.255500
H131	H13	0.457100	0.051000	0.192300
O121	O12	0.772300	0.097000	0.610500
C121	C12	0.624200	0.145100	0.309100
H141	H14	0.681200	0.170000	0.281400
C131	C13	0.672000	0.178900	0.401200
H151	H15	0.760900	0.227500	0.435200
C141	C14	0.467800	0.075500	0.394000
H161	H16	0.414400	0.051000	0.423600
C151	C15	0.692000	0.261300	0.794200
H171	H17	0.601700	0.213800	0.766500
C161	C16	0.748400	0.308800	0.888500
C171	C17	0.885600	0.376600	0.931300
H181	H18	0.927200	0.408200	0.994600
C181	C18	0.958600	0.395500	0.875800
H191	H19	0.050500	0.441100	0.901800
C191	C19	0.894400	0.346700	0.782100
H201	H20	0.944900	0.360100	0.746000
C201	C20	0.682900	0.323500	0.026300
C211	C21	0.564000	0.276200	0.052300
H211	H21	0.473100	0.277000	0.017400
H221	H22	0.557100	0.209800	0.033900
C221	C22	0.581000	0.319500	0.149700
H231	H23	0.586700	0.385700	0.168600
H241	H24	0.671300	0.318700	0.185200
C231	C23	0.458400	0.268400	0.170900
C241	C24	0.371200	0.279200	0.299700
C251	C25	0.240700	0.203900	0.254200
H251	H25	0.205200	0.170200	0.190900
C261	C26	0.164500	0.180800	0.307700
H261	H26	0.077200	0.130500	0.279700
C271	C27	0.217300	0.231500	0.399700
H271	H27	0.164700	0.214300	0.433300
C281	C28	0.416800	0.328000	0.394100
H281	H28	0.503200	0.379100	0.424100
C291	C29	0.865700	0.477000	0.608000
C301	C30	0.977600	0.439800	0.605600
H291	H29	0.964400	0.378400	0.600800
C311	C31	0.109800	0.494700	0.610400
C321	C32	0.129700	0.586700	0.619100
H301	H30	0.218200	0.623400	0.622800
C331	C33	0.019100	0.625000	0.622200
H311	H31	0.033300	0.687000	0.628400
C341	C34	0.886600	0.569400	0.615900
H321	H32	0.811400	0.594100	0.616900
C351	C35	0.227900	0.451700	0.604400
C361	C36	0.720100	0.416000	0.598600
C371	C37	0.241700	0.035200	0.617900
H331	H33	0.319000	0.012400	0.620900
C381	C38	0.252500	0.118700	0.606100
C391	C39	0.137600	0.152700	0.603100
H341	H34	0.143800	0.208600	0.596100
C401	C40	0.011200	0.102900	0.610500
C411	C41	0.002900	0.020900	0.620900
H351	H35	0.919100	0.987800	0.625300
C421	C42	0.118400	0.986400	0.625000
H361	H36	0.112100	0.930800	0.632500
C431	C43	0.386700	0.171200	0.596100
C441	C44	0.885700	0.139200	0.602400
Co31	Co3	0.575640	0.623430	0.407650
N91	N9	0.489600	0.564400	0.259800
O131	O13	0.233600	0.295000	0.932700
C451	C45	0.373300	0.486100	0.208200
H371	H37	0.326400	0.456500	0.237400
Co41	Co4	0.322110	0.793960	0.407190
N101	N10	0.196500	0.361900	0.067200
H381	H38	0.136500	0.355100	0.095000
O141	O14	0.785500	0.046100	0.886200
C461	C46	0.318500	0.446200	0.113700
N111	N11	0.726400	0.034400	0.743100
H391	H39	0.756300	0.058200	0.709500
O151	O15	0.212000	0.607800	0.918300
C471	C47	0.384100	0.493400	0.070400
H401	H40	0.347200	0.471400	0.007400
N121	N12	0.404100	0.855100	0.554600
O161	O16	0.634400	0.807900	0.886400
C481	C48	0.505500	0.573700	0.123600
H411	H41	0.552300	0.606000	0.096300
O171	O17	0.380100	0.549700	0.403600
N131	N13	0.238000	0.719200	0.258800
C491	C49	0.556800	0.606000	0.216500
H421	H42	0.641200	0.658400	0.250800
N141	N14	0.338200	0.718100	0.063600
H431	H43	0.414500	0.767700	0.096400
O181	O18	0.292900	0.665400	0.407600
C501	C50	0.164000	0.290300	0.982600
O191	O19	0.793600	0.633100	0.409900
N151	N15	0.538100	0.688000	0.742000
H441	H44	0.471700	0.633200	0.708100
C511	C51	0.034700	0.204500	0.955700
H451	H45	0.965800	0.226300	0.982000
H461	H46	0.065900	0.164000	0.981900
O201	O20	0.650100	0.498300	0.388800
N161	N16	0.657600	0.694600	0.555200
C521	C52	0.959400	0.145500	0.854200
H471	H47	0.943100	0.187600	0.826000
H481	H48	0.021700	0.113600	0.829100
O211	O21	0.511800	0.863500	0.401300
C531	C53	0.816100	0.071200	0.830300
C541	C54	0.590200	0.962100	0.700100
O221	O22	0.608200	0.755800	0.413600
O231	O23	0.108200	0.788900	0.413000
C551	C55	0.509000	0.926100	0.744500
H491	H49	0.542900	0.949000	0.807700
O241	O24	0.227700	0.903000	0.389500
C561	C56	0.375800	0.854900	0.690900
H501	H50	0.318800	0.830000	0.718600
C571	C57	0.328000	0.821100	0.598800
H511	H51	0.239100	0.772500	0.564800
C581	C58	0.532200	0.924500	0.606000
H521	H52	0.585600	0.949000	0.576400
C591	C59	0.308000	0.738700	0.205800
H531	H53	0.398300	0.786200	0.233500
C601	C60	0.251600	0.691200	0.111500
C611	C61	0.114400	0.623400	0.068700
H541	H54	0.072800	0.591800	0.005400
C621	C62	0.041400	0.604500	0.124200
H551	H55	0.949500	0.558900	0.098200
C631	C63	0.105600	0.653300	0.217900
H561	H56	0.055100	0.639900	0.254000
C641	C64	0.317100	0.676500	0.973700
C651	C65	0.436000	0.723800	0.947700
H571	H57	0.526900	0.723000	0.982600
H581	H58	0.442900	0.790200	0.966100
C661	C66	0.419000	0.680500	0.850300
H591	H59	0.413300	0.614300	0.831400
H601	H60	0.328700	0.681300	0.814800
C671	C67	0.541600	0.731600	0.829100
C681	C68	0.628800	0.720800	0.700300
C691	C69	0.759300	0.796100	0.745800
H611	H61	0.794800	0.829800	0.809100
C701	C70	0.835500	0.819200	0.692300
H621	H62	0.922800	0.869500	0.720300
C711	C71	0.782700	0.768500	0.600300
H631	H63	0.835300	0.785700	0.566700
C721	C72	0.583200	0.672000	0.605900
H641	H64	0.496800	0.620900	0.575900
C731	C73	0.134300	0.523000	0.392000
C741	C74	0.022400	0.560200	0.394400
H651	H65	0.035600	0.621600	0.399200
C751	C75	0.890200	0.505300	0.389600
C761	C76	0.870300	0.413300	0.380900
H661	H66	0.781800	0.376600	0.377200
C771	C77	0.980900	0.375000	0.377800
H671	H67	0.966700	0.313000	0.371600
C781	C78	0.113400	0.430600	0.384100
H681	H68	0.188600	0.405900	0.383100
C791	C79	0.772100	0.548300	0.395600
C801	C80	0.279900	0.584000	0.401400
C811	C81	0.758300	0.964800	0.382100
H691	H69	0.681000	0.987600	0.379100
C821	C82	0.747500	0.881300	0.393900
C831	C83	0.862400	0.847300	0.396900
H701	H70	0.856200	0.791400	0.403900
C841	C84	0.988800	0.897100	0.389500
C851	C85	0.997100	0.979100	0.379100
H711	H71	0.080900	0.012200	0.374700
C861	C86	0.881600	0.013600	0.375000
H721	H72	0.887900	0.069200	0.367500
C871	C87	0.613300	0.828800	0.403900
C881	C88	0.114300	0.860800	0.397600
