data_VOQWUV_clean_PM
_symmetry_space_group_name_H-M	'P1'
_cell_length_a	18.224000
_cell_length_b	18.239000
_cell_length_c	20.808000
_cell_angle_alpha	85.942000
_cell_angle_beta	83.558000
_cell_angle_gamma	63.398000
_symmetry_Int_Tables_number 1

loop_
_symmetry_equiv_pos_as_xyz
'x,y,z'

loop_
_atom_site_label
_atom_site_type_symbol
_atom_site_fract_x
_atom_site_fract_y
_atom_site_fract_z
Cd11	Cd1	0.423410	0.172570	0.715220
Cd21	Cd2	0.618510	0.588060	0.723100
Cd31	Cd3	0.973080	0.214220	0.259080
O11	O1	0.490100	0.028400	0.693000
O21	O2	0.558000	0.075100	0.746300
O31	O3	0.864400	0.899900	0.739700
O41	O4	0.919100	0.773300	0.705700
O51	O5	0.726300	0.651200	0.670000
O61	O6	0.597800	0.719800	0.711400
O71	O7	0.463000	0.284300	0.748300
O81	O8	0.335300	0.318400	0.728200
O91	O9	0.553300	0.503000	0.747200
O101	O10	0.465800	0.633400	0.734200
O111	O11	0.163000	0.705200	0.749600
O121	O12	0.131700	0.616300	0.710600
C11	C1	0.554100	0.017200	0.717900
C21	C2	0.625500	0.934700	0.714800
C31	C3	0.704700	0.924900	0.721500
H11	H1	0.711900	0.970000	0.731400
C41	C4	0.772900	0.849600	0.713600
C51	C5	0.857400	0.840500	0.719000
C61	C6	0.761100	0.780600	0.700700
H21	H2	0.806200	0.729800	0.693700
C71	C7	0.681600	0.789500	0.698700
C81	C8	0.670000	0.715300	0.691200
C91	C9	0.614300	0.866900	0.704300
H31	H3	0.561500	0.872600	0.701000
C101	C10	0.391100	0.337700	0.739900
C111	C11	0.370600	0.426500	0.740800
C121	C12	0.431300	0.451600	0.743300
H41	H4	0.485500	0.412300	0.746200
C131	C13	0.413200	0.534100	0.741700
C141	C14	0.480200	0.559800	0.740900
C151	C15	0.331000	0.593500	0.739200
H51	H5	0.318000	0.649000	0.739000
C161	C16	0.269400	0.568900	0.737200
C171	C17	0.182500	0.633700	0.733300
C181	C18	0.289000	0.485900	0.737400
H61	H6	0.247600	0.469700	0.735200
C191	C19	0.243800	0.255800	0.663300
H71	H7	0.248900	0.304200	0.663400
C201	C20	0.270500	0.127500	0.671700
C211	C21	0.306100	0.043100	0.680700
H81	H8	0.360800	0.014300	0.689900
C221	C22	0.259300	0.003700	0.675900
H91	H9	0.282200	0.947100	0.682400
C231	C23	0.176400	0.046700	0.661200
H101	H10	0.145500	0.018100	0.659000
C241	C24	0.140800	0.130400	0.650300
H111	H11	0.086700	0.158700	0.639500
C251	C25	0.188700	0.170700	0.655900
C261	C26	0.100700	0.324900	0.636700
C271	C27	0.024700	0.328700	0.661200
H121	H12	0.020700	0.285800	0.685700
C281	C28	0.955500	0.399900	0.647300
C291	C29	0.959600	0.465000	0.613400
H131	H13	0.911500	0.511200	0.604600
C301	C30	0.035700	0.461900	0.592100
C311	C31	0.106000	0.390200	0.601900
H141	H14	0.157200	0.385900	0.585100
C321	C32	0.812000	0.477100	0.692500
H151	H15	0.814600	0.527000	0.690100
C331	C33	0.768900	0.386100	0.710600
C341	C34	0.722700	0.342100	0.729100
H161	H16	0.669200	0.368200	0.748500
C351	C35	0.758800	0.260200	0.717600
H171	H17	0.729700	0.230000	0.730400
C361	C36	0.838700	0.220400	0.687000
H181	H18	0.860600	0.164900	0.678400
C371	C37	0.885400	0.261500	0.669600
H191	H19	0.938700	0.234900	0.649700
C381	C38	0.849500	0.345200	0.682800
C391	C39	0.115300	0.530700	0.535200
H201	H20	0.165800	0.484700	0.537600
C401	C40	0.025600	0.653500	0.518300
C411	C41	0.986500	0.734700	0.501900
H211	H21	0.016300	0.762200	0.483300
C421	C42	0.902700	0.775000	0.513200
H221	H22	0.875000	0.830000	0.501100
C431	C43	0.858100	0.733900	0.542900
H231	H23	0.801200	0.762500	0.550800
C441	C44	0.897400	0.651100	0.560700
H241	H24	0.867700	0.623700	0.579900
C451	C45	0.981700	0.611400	0.548800
C461	C46	0.532900	0.231400	0.609600
H251	H25	0.542000	0.256100	0.643500
C471	C47	0.491000	0.163500	0.554800
C481	C48	0.454200	0.117800	0.533600
H261	H26	0.422500	0.099400	0.561900
C491	C49	0.467500	0.101400	0.467700
H271	H27	0.444000	0.071200	0.451800
C501	C50	0.515100	0.129200	0.424900
H281	H28	0.522200	0.117200	0.381300
C511	C51	0.552100	0.174100	0.445500
H291	H29	0.583600	0.192800	0.417100
C521	C52	0.539300	0.189500	0.510800
C531	C53	0.621000	0.266200	0.528100
C541	C54	0.694600	0.219700	0.492600
H301	H30	0.706600	0.167500	0.479600
C551	C55	0.750700	0.252200	0.476400
C561	C56	0.733600	0.329600	0.495000
H311	H31	0.772200	0.350000	0.485400
C571	C57	0.658400	0.376500	0.528100
C581	C58	0.600800	0.346000	0.544600
H321	H32	0.549800	0.378300	0.566200
C591	C59	0.863700	0.236400	0.392800
H331	H33	0.843500	0.292300	0.383300
C601	C60	0.939400	0.106200	0.390200
C611	C61	0.000800	0.026800	0.378200
H341	H34	0.044000	0.017100	0.346300
C621	C62	0.995600	0.962700	0.415100
H351	H35	0.035200	0.909100	0.407500
C631	C63	0.931400	0.977700	0.463600
H361	H36	0.930100	0.933400	0.487900
C641	C64	0.869900	0.055000	0.477300
H371	H37	0.827500	0.064300	0.509800
C651	C65	0.875600	0.118500	0.438800
C661	C66	0.659600	0.781200	0.140500
H381	H38	0.662600	0.729700	0.151400
C671	C67	0.631600	0.910000	0.145800
C681	C68	0.602100	0.990200	0.163900
H391	H39	0.575000	0.007700	0.204500
C691	C69	0.614800	0.043400	0.118400
H401	H40	0.597200	0.098000	0.128100
C701	C70	0.656000	0.012600	0.055100
H411	H41	0.663800	0.049000	0.024600
C711	C71	0.682900	0.935500	0.038900
H421	H42	0.708600	0.919000	0.997700
C721	C72	0.672800	0.876600	0.084400
C731	C73	0.618900	0.482600	0.609000
H431	H43	0.607100	0.452400	0.642900
C741	C74	0.638000	0.578000	0.554600
C751	C75	0.644100	0.649400	0.533500
H441	H44	0.634300	0.690300	0.562200
C761	C76	0.665100	0.657200	0.468500
H451	H45	0.670600	0.703900	0.453200
C771	C77	0.678400	0.596500	0.425300
H461	H46	0.692200	0.604100	0.381800
C781	C78	0.671800	0.525400	0.444700
H471	H47	0.679300	0.485600	0.415700
C791	C79	0.653400	0.517900	0.509800
C801	C80	0.674000	0.641800	0.848500
H481	H48	0.689100	0.675200	0.819900
C811	C81	0.631300	0.554800	0.886600
C821	C82	0.599800	0.497100	0.895600
H491	H49	0.582100	0.480600	0.861500
C831	C83	0.596400	0.465400	0.959300
H501	H50	0.576300	0.426600	0.967500
C841	C84	0.621500	0.490200	0.008000
H511	H51	0.618100	0.467800	0.049100
C851	C85	0.651500	0.545700	0.000400
H521	H52	0.668300	0.561800	0.035200
C861	C86	0.656200	0.578100	0.938900
C871	C87	0.724500	0.672000	0.943700
C881	C88	0.687800	0.714400	0.000800
H531	H53	0.637800	0.717800	0.020100
C891	C89	0.728800	0.751100	0.027400
C901	C90	0.804000	0.745900	0.000500
H541	H54	0.830800	0.770500	0.019700
C911	C91	0.838100	0.702800	0.943700
C921	C92	0.798900	0.666200	0.914000
H551	H55	0.821700	0.638700	0.875400
C931	C93	0.035700	0.031100	0.203700
H561	H56	0.089400	0.020900	0.209400
C941	C94	0.904100	0.090600	0.202300
C951	C95	0.820900	0.143500	0.208200
H571	H57	0.800800	0.194300	0.227300
C961	C96	0.768900	0.117200	0.184500
H581	H58	0.712600	0.151800	0.186600
C971	C97	0.799000	0.040100	0.157400
H591	H59	0.761800	0.023900	0.143600
C981	C98	0.879800	0.988500	0.150700
H601	H60	0.899500	0.938600	0.130500
C991	C99	0.932600	0.013300	0.175500
C1001	C100	0.073500	0.895500	0.155400
C1011	C101	0.052400	0.832700	0.167800
H611	H61	0.004200	0.841100	0.193400
C1021	C102	0.103000	0.756300	0.142400
C1031	C103	0.176600	0.743600	0.105500
H621	H62	0.210600	0.692800	0.087500
C1041	C104	0.197800	0.806800	0.096100
C1051	C105	0.147800	0.883800	0.118900
H631	H63	0.162300	0.926600	0.110600
C1061	C106	0.138000	0.609100	0.160100
H641	H64	0.194800	0.590800	0.154500
C1071	C107	0.018500	0.611000	0.176900
C1081	C108	0.953200	0.590300	0.190100
H651	H65	0.962600	0.536000	0.197600
C1091	C109	0.873400	0.653600	0.191800
H661	H66	0.828700	0.641700	0.201000
C1101	C110	0.860000	0.733800	0.179800
H671	H67	0.806000	0.774700	0.181100
C1111	C111	0.923600	0.755700	0.166100
H681	H68	0.913500	0.810100	0.157800
C1121	C112	0.004000	0.692400	0.165400
C1131	C113	0.333800	0.810500	0.080000
H691	H69	0.326900	0.837900	0.117900
C1141	C114	0.382100	0.755400	0.988200
C1151	C115	0.430100	0.724200	0.930500
H701	H70	0.481900	0.722800	0.921600
C1161	C116	0.399000	0.697100	0.889400
H711	H71	0.430500	0.674100	0.851200
C1171	C117	0.321700	0.701600	0.900900
H721	H72	0.301600	0.684100	0.869100
C1181	C118	0.272500	0.730800	0.957200
H731	H73	0.221100	0.731100	0.965600
C1191	C119	0.305000	0.759100	0.999500
C1201	C120	0.919500	0.736900	0.854900
H741	H74	0.875800	0.763500	0.829300
C1211	C121	0.039200	0.687800	0.888700
C1221	C122	0.121700	0.660700	0.897400
H751	H75	0.156900	0.671100	0.866300
C1231	C123	0.149500	0.618300	0.953300
H761	H76	0.204200	0.601400	0.960800
C1241	C124	0.098700	0.599600	0.999100
H771	H77	0.121100	0.568800	0.035600
C1251	C125	0.017100	0.624700	0.992700
H781	H78	0.982900	0.613000	0.023900
C1261	C126	0.988700	0.668900	0.936200
N11	N1	0.303700	0.183500	0.676000
N21	N2	0.173800	0.253500	0.649900
N31	N3	0.745900	0.469300	0.716300
N41	N4	0.876100	0.406000	0.671700
N51	N5	0.109300	0.601000	0.509600
N61	N6	0.042600	0.530100	0.558000
N71	N7	0.487800	0.190200	0.617600
N81	N8	0.564400	0.234100	0.548200
N91	N9	0.930200	0.180800	0.362300
N101	N10	0.826800	0.204500	0.440100
N111	N11	0.625300	0.842300	0.180600
N121	N12	0.690400	0.797900	0.082200
N131	N13	0.616400	0.554500	0.616200
N141	N14	0.640300	0.456800	0.547000
N151	N15	0.641300	0.597000	0.831100
N161	N16	0.684100	0.635300	0.912300
N171	N17	0.972100	0.100100	0.219500
N181	N18	0.017300	0.975500	0.178400
N191	N19	0.103600	0.559500	0.174300
N201	N20	0.082900	0.690400	0.154300
N211	N21	0.400900	0.785200	0.042500
N221	N22	0.273700	0.794600	0.060900
N231	N23	0.994800	0.730500	0.837900
N241	N24	0.912600	0.701100	0.912600
Cd41	Cd4	0.576590	0.827430	0.284780
Cd51	Cd5	0.381490	0.411940	0.276900
Cd61	Cd6	0.026920	0.785780	0.740920
O131	O13	0.509900	0.971600	0.307000
O141	O14	0.442000	0.924900	0.253700
O151	O15	0.135600	0.100100	0.260300
O161	O16	0.080900	0.226700	0.294300
O171	O17	0.273700	0.348800	0.330000
O181	O18	0.402200	0.280200	0.288600
O191	O19	0.537000	0.715700	0.251700
O201	O20	0.664700	0.681600	0.271800
O211	O21	0.446700	0.497000	0.252800
O221	O22	0.534200	0.366600	0.265800
O231	O23	0.837000	0.294800	0.250400
O241	O24	0.868300	0.383700	0.289400
C1271	C127	0.445900	0.982800	0.282100
C1281	C128	0.374500	0.065300	0.285200
C1291	C129	0.295300	0.075100	0.278500
H791	H79	0.288100	0.030000	0.268600
C1301	C130	0.227100	0.150400	0.286400
C1311	C131	0.142600	0.159500	0.281000
C1321	C132	0.238900	0.219400	0.299300
H801	H80	0.193800	0.270200	0.306300
C1331	C133	0.318400	0.210500	0.301300
C1341	C134	0.330000	0.284700	0.308800
C1351	C135	0.385700	0.133100	0.295700
H811	H81	0.438500	0.127400	0.299000
C1361	C136	0.608900	0.662300	0.260100
C1371	C137	0.629400	0.573500	0.259200
C1381	C138	0.568700	0.548400	0.256700
H821	H82	0.514500	0.587700	0.253800
C1391	C139	0.586800	0.465900	0.258300
C1401	C140	0.519800	0.440200	0.259100
C1411	C141	0.669000	0.406500	0.260800
H831	H83	0.682000	0.351000	0.261000
C1421	C142	0.730600	0.431100	0.262800
C1431	C143	0.817500	0.366300	0.266700
C1441	C144	0.711000	0.514100	0.262600
H841	H84	0.752400	0.530300	0.264800
C1451	C145	0.756200	0.744200	0.336700
H851	H85	0.751100	0.695800	0.336600
C1461	C146	0.729500	0.872500	0.328300
C1471	C147	0.693900	0.956900	0.319300
H861	H86	0.639200	0.985700	0.310100
C1481	C148	0.740700	0.996300	0.324100
H871	H87	0.717800	0.052900	0.317600
C1491	C149	0.823600	0.953300	0.338800
H881	H88	0.854500	0.981900	0.341000
C1501	C150	0.859200	0.869600	0.349700
H891	H89	0.913300	0.841300	0.360500
C1511	C151	0.811300	0.829300	0.344100
C1521	C152	0.899300	0.675100	0.363300
C1531	C153	0.975300	0.671300	0.338800
H901	H90	0.979300	0.714200	0.314300
C1541	C154	0.044500	0.600100	0.352700
C1551	C155	0.040400	0.535000	0.386600
H911	H91	0.088500	0.488800	0.395400
C1561	C156	0.964300	0.538100	0.407900
C1571	C157	0.894000	0.609800	0.398100
H921	H92	0.842800	0.614100	0.414900
C1581	C158	0.188000	0.522900	0.307500
H931	H93	0.185400	0.473000	0.309900
C1591	C159	0.231100	0.613900	0.289400
C1601	C160	0.277300	0.657900	0.270900
H941	H94	0.330800	0.631800	0.251500
C1611	C161	0.241200	0.739800	0.282400
H951	H95	0.270300	0.770000	0.269600
C1621	C162	0.161300	0.779600	0.313000
H961	H96	0.139400	0.835100	0.321600
C1631	C163	0.114600	0.738500	0.330400
H971	H97	0.061300	0.765100	0.350300
C1641	C164	0.150500	0.654800	0.317200
C1651	C165	0.884700	0.469300	0.464800
H981	H98	0.834200	0.515300	0.462400
C1661	C166	0.974400	0.346500	0.481700
C1671	C167	0.013500	0.265300	0.498100
H991	H99	0.983700	0.237800	0.516700
C1681	C168	0.097300	0.225000	0.486800
H1001	H100	0.125000	0.170000	0.498900
C1691	C169	0.141900	0.266100	0.457100
H1011	H101	0.198800	0.237500	0.449200
C1701	C170	0.102600	0.348900	0.439300
H1021	H102	0.132300	0.376300	0.420100
C1711	C171	0.018300	0.388600	0.451200
C1721	C172	0.467100	0.768600	0.390400
H1031	H103	0.458000	0.743900	0.356500
C1731	C173	0.509000	0.836500	0.445200
C1741	C174	0.545800	0.882200	0.466400
H1041	H104	0.577500	0.900600	0.438100
C1751	C175	0.532500	0.898600	0.532300
H1051	H105	0.556000	0.928800	0.548200
C1761	C176	0.484900	0.870800	0.575100
H1061	H106	0.477800	0.882800	0.618700
C1771	C177	0.447900	0.825900	0.554500
H1071	H107	0.416400	0.807200	0.582900
C1781	C178	0.460700	0.810500	0.489200
C1791	C179	0.379000	0.733800	0.471900
C1801	C180	0.305400	0.780300	0.507400
H1081	H108	0.293400	0.832500	0.520400
C1811	C181	0.249300	0.747800	0.523600
C1821	C182	0.266400	0.670400	0.505000
H1091	H109	0.227800	0.650000	0.514600
C1831	C183	0.341600	0.623500	0.471900
C1841	C184	0.399200	0.654000	0.455400
H1101	H110	0.450200	0.621700	0.433800
C1851	C185	0.136300	0.763600	0.607200
H1111	H111	0.156500	0.707700	0.616700
C1861	C186	0.060600	0.893800	0.609800
C1871	C187	0.999200	0.973200	0.621800
H1121	H112	0.956000	0.982900	0.653700
C1881	C188	0.004400	0.037300	0.584900
H1131	H113	0.964800	0.090900	0.592500
C1891	C189	0.068600	0.022300	0.536400
H1141	H114	0.069900	0.066600	0.512100
C1901	C190	0.130100	0.945000	0.522700
H1151	H115	0.172500	0.935700	0.490200
C1911	C191	0.124400	0.881500	0.561200
C1921	C192	0.340400	0.218800	0.859500
H1161	H116	0.337400	0.270300	0.848600
C1931	C193	0.368400	0.090000	0.854200
C1941	C194	0.397900	0.009800	0.836100
H1171	H117	0.425000	0.992300	0.795500
C1951	C195	0.385200	0.956600	0.881600
H1181	H118	0.402800	0.902000	0.871900
C1961	C196	0.344000	0.987400	0.944900
H1191	H119	0.336200	0.951000	0.975400
C1971	C197	0.317100	0.064500	0.961100
H1201	H120	0.291400	0.081000	0.002300
C1981	C198	0.327200	0.123400	0.915600
C1991	C199	0.381100	0.517400	0.391000
H1211	H121	0.392900	0.547600	0.357100
C2001	C200	0.362000	0.422000	0.445400
C2011	C201	0.355900	0.350600	0.466500
H1221	H122	0.365700	0.309700	0.437800
C2021	C202	0.334900	0.342800	0.531500
H1231	H123	0.329400	0.296100	0.546800
C2031	C203	0.321600	0.403500	0.574700
H1241	H124	0.307800	0.395900	0.618200
C2041	C204	0.328200	0.474600	0.555300
H1251	H125	0.320700	0.514400	0.584300
C2051	C205	0.346600	0.482100	0.490200
C2061	C206	0.326000	0.358200	0.151500
H1261	H126	0.310900	0.324800	0.180100
C2071	C207	0.368700	0.445200	0.113400
C2081	C208	0.400200	0.502900	0.104400
H1271	H127	0.417900	0.519400	0.138500
C2091	C209	0.403600	0.534600	0.040700
H1281	H128	0.423700	0.573400	0.032500
C2101	C210	0.378500	0.509800	0.992000
H1291	H129	0.381900	0.532200	0.950900
C2111	C211	0.348500	0.454300	0.999600
H1301	H130	0.331700	0.438200	0.964800
C2121	C212	0.343800	0.421900	0.061100
C2131	C213	0.275500	0.328000	0.056300
C2141	C214	0.312200	0.285600	0.999200
H1311	H131	0.362200	0.282200	0.979900
C2151	C215	0.271200	0.248900	0.972600
C2161	C216	0.196000	0.254100	0.999500
H1321	H132	0.169200	0.229500	0.980300
C2171	C217	0.161900	0.297200	0.056300
C2181	C218	0.201100	0.333800	0.086000
H1331	H133	0.178300	0.361300	0.124600
C2191	C219	0.964300	0.968900	0.796300
H1341	H134	0.910600	0.979100	0.790600
C2201	C220	0.095900	0.909400	0.797700
C2211	C221	0.179100	0.856500	0.791800
H1351	H135	0.199200	0.805700	0.772700
C2221	C222	0.231100	0.882800	0.815500
H1361	H136	0.287400	0.848200	0.813400
C2231	C223	0.201000	0.959900	0.842600
H1371	H137	0.238200	0.976100	0.856400
C2241	C224	0.120200	0.011500	0.849300
H1381	H138	0.100500	0.061400	0.869500
C2251	C225	0.067400	0.986700	0.824500
C2261	C226	0.926500	0.104500	0.844600
C2271	C227	0.947600	0.167300	0.832200
H1391	H139	0.995800	0.158900	0.806600
C2281	C228	0.897000	0.243700	0.857600
C2291	C229	0.823400	0.256400	0.894500
H1401	H140	0.789400	0.307200	0.912500
C2301	C230	0.802200	0.193200	0.903900
C2311	C231	0.852200	0.116200	0.881100
H1411	H141	0.837700	0.073400	0.889400
C2321	C232	0.862000	0.390900	0.839900
H1421	H142	0.805200	0.409200	0.845500
C2331	C233	0.981500	0.389000	0.823100
C2341	C234	0.046800	0.409700	0.809900
H1431	H143	0.037400	0.464000	0.802400
C2351	C235	0.126600	0.346400	0.808200
H1441	H144	0.171300	0.358300	0.799000
C2361	C236	0.140000	0.266200	0.820200
H1451	H145	0.194000	0.225300	0.818900
C2371	C237	0.076400	0.244300	0.833900
H1461	H146	0.086500	0.189900	0.842200
C2381	C238	0.996000	0.307600	0.834600
C2391	C239	0.666200	0.189500	0.920000
H1471	H147	0.673100	0.162100	0.882100
C2401	C240	0.617900	0.244600	0.011800
C2411	C241	0.569900	0.275800	0.069500
H1481	H148	0.518100	0.277200	0.078400
C2421	C242	0.601000	0.302900	0.110600
H1491	H149	0.569500	0.325900	0.148800
C2431	C243	0.678300	0.298400	0.099100
H1501	H150	0.698400	0.315900	0.130900
C2441	C244	0.727500	0.269200	0.042800
H1511	H151	0.778900	0.268900	0.034400
C2451	C245	0.695000	0.240900	0.000500
C2461	C246	0.080500	0.263100	0.145100
H1521	H152	0.124200	0.236500	0.170700
C2471	C247	0.960800	0.312200	0.111300
C2481	C248	0.878300	0.339300	0.102600
H1531	H153	0.843100	0.328900	0.133700
C2491	C249	0.850500	0.381700	0.046700
H1541	H154	0.795800	0.398600	0.039200
C2501	C250	0.901300	0.400400	0.000900
H1551	H155	0.878900	0.431200	0.964400
C2511	C251	0.982900	0.375300	0.007300
H1561	H156	0.017100	0.387000	0.976100
C2521	C252	0.011300	0.331100	0.063800
N251	N25	0.696300	0.816500	0.324000
N261	N26	0.826200	0.746500	0.350100
N271	N27	0.254100	0.530700	0.283700
N281	N28	0.123900	0.594000	0.328300
N291	N29	0.890700	0.399000	0.490400
N301	N30	0.957400	0.469900	0.442000
N311	N31	0.512200	0.809800	0.382400
N321	N32	0.435600	0.765900	0.451800
N331	N33	0.069800	0.819200	0.637700
N341	N34	0.173200	0.795500	0.559900
N351	N35	0.374700	0.157700	0.819400
N361	N36	0.309600	0.202100	0.917800
N371	N37	0.383600	0.445500	0.383800
N381	N38	0.359700	0.543200	0.453000
N391	N39	0.358700	0.403000	0.168900
N401	N40	0.315900	0.364700	0.087700
N411	N41	0.027900	0.899900	0.780500
N421	N42	0.982700	0.024500	0.821600
N431	N43	0.896400	0.440500	0.825700
N441	N44	0.917100	0.309600	0.845700
N451	N45	0.599100	0.214800	0.957500
N461	N46	0.726300	0.205400	0.939100
N471	N47	0.005200	0.269500	0.162100
N481	N48	0.087400	0.298900	0.087400
