data_VORBUA_clean_PM
_symmetry_space_group_name_H-M	'P1'
_cell_length_a	9.038000
_cell_length_b	9.038000
_cell_length_c	14.903400
_cell_angle_alpha	105.972000
_cell_angle_beta	105.973000
_cell_angle_gamma	95.306300
_symmetry_Int_Tables_number 1

loop_
_symmetry_equiv_pos_as_xyz
'x,y,z'

loop_
_atom_site_label
_atom_site_type_symbol
_atom_site_fract_x
_atom_site_fract_y
_atom_site_fract_z
La11	La1	0.253860	0.503860	0.007720
La21	La2	0.496140	0.746140	0.492280
La31	La3	0.746140	0.496140	0.992280
La41	La4	0.503860	0.253860	0.507720
H11	H1	0.619300	0.016900	0.150200
H21	H2	0.741700	0.907900	0.125000
H31	H3	0.639500	0.972900	0.043200
H41	H4	0.030900	0.133300	0.150200
H51	H5	0.883300	0.217100	0.125000
H61	H6	0.903700	0.070300	0.043200
H71	H7	0.983100	0.380700	0.349800
H81	H8	0.092100	0.258300	0.375000
H91	H9	0.027100	0.360500	0.456800
H101	H10	0.866700	0.969100	0.349800
H111	H11	0.782900	0.116700	0.375000
H121	H12	0.929700	0.096300	0.456800
H131	H13	0.380700	0.983100	0.849800
H141	H14	0.258300	0.092100	0.875000
H151	H15	0.360500	0.027100	0.956800
H161	H16	0.969100	0.866700	0.849800
H171	H17	0.116700	0.782900	0.875000
H181	H18	0.096300	0.929700	0.956800
H191	H19	0.016900	0.619300	0.650200
H201	H20	0.907900	0.741700	0.625000
H211	H21	0.972900	0.639500	0.543200
H221	H22	0.133300	0.030900	0.650200
H231	H23	0.217100	0.883300	0.625000
H241	H24	0.070300	0.903700	0.543200
C11	C1	0.514490	0.792690	0.064780
C21	C2	0.639540	0.934940	0.098680
C31	C3	0.050290	0.272090	0.064780
C41	C4	0.959140	0.163740	0.098680
C51	C5	0.207310	0.485510	0.435220
C61	C6	0.065060	0.360460	0.401320
C71	C7	0.727910	0.949710	0.435220
C81	C8	0.836260	0.040860	0.401320
C91	C9	0.485510	0.207310	0.935220
C101	C10	0.360460	0.065060	0.901320
C111	C11	0.949710	0.727910	0.935220
C121	C12	0.040860	0.836260	0.901320
C131	C13	0.792690	0.514490	0.564780
C141	C14	0.934940	0.639540	0.598680
C151	C15	0.272090	0.050290	0.564780
C161	C16	0.163740	0.959140	0.598680
C171	C17	0.317400	0.682600	0.250000
C181	C18	0.432600	0.567400	0.250000
C191	C19	0.682600	0.317400	0.750000
C201	C20	0.567400	0.432600	0.750000
O11	O1	0.376750	0.805990	0.065140
O21	O2	0.547290	0.657750	0.034840
O31	O3	0.219620	0.668020	0.168640
O41	O4	0.188390	0.259150	0.065140
O51	O5	0.987550	0.377090	0.034840
O61	O6	0.449020	0.500620	0.168640
O71	O7	0.194010	0.623250	0.434860
O81	O8	0.342250	0.452710	0.465160
O91	O9	0.331980	0.780380	0.331360
O101	O10	0.740850	0.811610	0.434860
O111	O11	0.622910	0.012450	0.465160
O121	O12	0.499380	0.550980	0.331360
O131	O13	0.623250	0.194010	0.934860
O141	O14	0.452710	0.342250	0.965160
O151	O15	0.780380	0.331980	0.831360
O161	O16	0.811610	0.740850	0.934860
O171	O17	0.012450	0.622910	0.965160
O181	O18	0.550980	0.499380	0.831360
O191	O19	0.805990	0.376750	0.565140
O201	O20	0.657750	0.547290	0.534840
O211	O21	0.668020	0.219620	0.668640
O221	O22	0.259150	0.188390	0.565140
O231	O23	0.377090	0.987550	0.534840
O241	O24	0.500620	0.449020	0.668640
