data_VOSTUU_clean_PM
_symmetry_space_group_name_H-M	'P1'
_cell_length_a	20.767700
_cell_length_b	11.755300
_cell_length_c	28.509000
_cell_angle_alpha	90.000000
_cell_angle_beta	90.000000
_cell_angle_gamma	90.000000
_symmetry_Int_Tables_number 1

loop_
_symmetry_equiv_pos_as_xyz
'x,y,z'

loop_
_atom_site_label
_atom_site_type_symbol
_atom_site_fract_x
_atom_site_fract_y
_atom_site_fract_z
C11	C1	0.737770	0.678350	0.821010
H11	H1	0.718200	0.744500	0.810200
C21	C2	0.705970	0.609030	0.852760
H21	H2	0.665000	0.628300	0.863300
C31	C3	0.735790	0.510230	0.868810
C41	C4	0.797190	0.481540	0.853120
H31	H3	0.817000	0.415700	0.864000
C51	C5	0.828630	0.550580	0.821420
H41	H4	0.869600	0.531300	0.810900
C61	C6	0.696760	0.441750	0.903510
C71	C7	0.722110	0.416710	0.947500
H51	H5	0.762900	0.442500	0.955700
C81	C8	0.686520	0.353410	0.979030
H61	H6	0.703300	0.336500	0.008500
C91	C9	0.625220	0.314790	0.966590
C101	C10	0.599910	0.340130	0.922550
H71	H7	0.558900	0.315000	0.914400
C111	C11	0.635770	0.402610	0.891040
H81	H8	0.619300	0.418600	0.861400
C121	C12	0.484080	0.156740	0.982130
H91	H9	0.506400	0.095500	0.969400
C131	C13	0.417040	0.155890	0.983470
H101	H10	0.394600	0.092000	0.973300
C141	C14	0.278170	0.270530	0.041290
H111	H11	0.300600	0.283900	0.069000
H121	H12	0.188800	0.285700	0.068800
C151	C15	0.211270	0.271100	0.041370
C161	C16	0.073280	0.177480	0.965360
C171	C17	0.018470	0.219450	0.942800
H131	H13	0.004200	0.293100	0.948600
C181	C18	0.986180	0.150630	0.912060
H141	H14	0.950100	0.178800	0.896700
C191	C19	0.005840	0.040070	0.903270
C201	C20	0.060240	0.998570	0.925630
H151	H15	0.074200	0.924700	0.919800
C211	C21	0.093980	0.067450	0.956820
H161	H16	0.130400	0.039600	0.971900
C221	C22	0.879560	0.935050	0.818300
H171	H17	0.840200	0.960700	0.806800
C231	C23	0.913340	0.996480	0.852460
H181	H18	0.895100	0.063100	0.864000
C241	C24	0.971720	0.963350	0.869650
C251	C25	0.997390	0.864960	0.852720
H191	H19	0.037400	0.841500	0.863800
C261	C26	0.965990	0.798060	0.819500
H201	H20	0.984200	0.730300	0.809100
N11	N1	0.798940	0.649030	0.805300
N21	N2	0.906870	0.834360	0.802100
C271	C27	0.737770	0.821650	0.178990
H211	H21	0.718200	0.755500	0.189800
C281	C28	0.705970	0.890970	0.147240
H221	H22	0.665000	0.871700	0.136700
C291	C29	0.735790	0.989770	0.131190
C301	C30	0.797190	0.018460	0.146880
H231	H23	0.817000	0.084300	0.136000
C311	C31	0.828630	0.949420	0.178580
H241	H24	0.869600	0.968700	0.189100
C321	C32	0.696760	0.058250	0.096490
C331	C33	0.722110	0.083290	0.052500
H251	H25	0.762900	0.057500	0.044300
C341	C34	0.686520	0.146590	0.020970
H261	H26	0.703300	0.163500	0.991500
C351	C35	0.625220	0.185210	0.033410
C361	C36	0.599910	0.159870	0.077450
H271	H27	0.558900	0.185000	0.085600
C371	C37	0.635770	0.097390	0.108960
H281	H28	0.619300	0.081400	0.138600
C381	C38	0.484080	0.343260	0.017870
H291	H29	0.506400	0.404500	0.030600
C391	C39	0.417040	0.344110	0.016530
H301	H30	0.394600	0.408000	0.026700
C401	C40	0.278170	0.229470	0.958710
H311	H31	0.300600	0.216100	0.931000
H321	H32	0.188800	0.214300	0.931200
C411	C41	0.211270	0.228900	0.958630
C421	C42	0.073280	0.322520	0.034640
C431	C43	0.018470	0.280550	0.057200
H331	H33	0.004200	0.206900	0.051400
C441	C44	0.986180	0.349370	0.087940
H341	H34	0.950100	0.321200	0.103300
C451	C45	0.005840	0.459930	0.096730
C461	C46	0.060240	0.501430	0.074370
H351	H35	0.074200	0.575300	0.080200
C471	C47	0.093980	0.432550	0.043180
H361	H36	0.130400	0.460400	0.028100
C481	C48	0.879560	0.564950	0.181700
H371	H37	0.840200	0.539300	0.193200
C491	C49	0.913340	0.503520	0.147540
H381	H38	0.895100	0.436900	0.136000
C501	C50	0.971720	0.536650	0.130350
C511	C51	0.997390	0.635040	0.147280
H391	H39	0.037400	0.658500	0.136200
C521	C52	0.965990	0.701940	0.180500
H401	H40	0.984200	0.769700	0.190900
N31	N3	0.798940	0.850970	0.194700
N41	N4	0.906870	0.665640	0.197900
C531	C53	0.737770	0.678350	0.678990
H411	H41	0.718200	0.744500	0.689800
C541	C54	0.705970	0.609030	0.647240
H421	H42	0.665000	0.628300	0.636700
C551	C55	0.735790	0.510230	0.631190
C561	C56	0.797190	0.481540	0.646880
H431	H43	0.817000	0.415700	0.636000
C571	C57	0.828630	0.550580	0.678580
H441	H44	0.869600	0.531300	0.689100
C581	C58	0.696760	0.441750	0.596490
C591	C59	0.722110	0.416710	0.552500
H451	H45	0.762900	0.442500	0.544300
C601	C60	0.686520	0.353410	0.520970
H461	H46	0.703300	0.336500	0.491500
C611	C61	0.625220	0.314790	0.533410
C621	C62	0.599910	0.340130	0.577450
H471	H47	0.558900	0.315000	0.585600
C631	C63	0.635770	0.402610	0.608960
H481	H48	0.619300	0.418600	0.638600
C641	C64	0.484080	0.156740	0.517870
H491	H49	0.506400	0.095500	0.530600
C651	C65	0.417040	0.155890	0.516530
H501	H50	0.394600	0.092000	0.526700
C661	C66	0.278170	0.270530	0.458710
H511	H51	0.300600	0.283900	0.431000
H521	H52	0.188800	0.285700	0.431200
C671	C67	0.211270	0.271100	0.458630
C681	C68	0.073280	0.177480	0.534640
C691	C69	0.018470	0.219450	0.557200
H531	H53	0.004200	0.293100	0.551400
C701	C70	0.986180	0.150630	0.587940
H541	H54	0.950100	0.178800	0.603300
C711	C71	0.005840	0.040070	0.596730
C721	C72	0.060240	0.998570	0.574370
H551	H55	0.074200	0.924700	0.580200
C731	C73	0.093980	0.067450	0.543180
H561	H56	0.130400	0.039600	0.528100
C741	C74	0.879560	0.935050	0.681700
H571	H57	0.840200	0.960700	0.693200
C751	C75	0.913340	0.996480	0.647540
H581	H58	0.895100	0.063100	0.636000
C761	C76	0.971720	0.963350	0.630350
C771	C77	0.997390	0.864960	0.647280
H591	H59	0.037400	0.841500	0.636200
C781	C78	0.965990	0.798060	0.680500
H601	H60	0.984200	0.730300	0.690900
N51	N5	0.798940	0.649030	0.694700
N61	N6	0.906870	0.834360	0.697900
C791	C79	0.737770	0.821650	0.321010
H611	H61	0.718200	0.755500	0.310200
C801	C80	0.705970	0.890970	0.352760
H621	H62	0.665000	0.871700	0.363300
C811	C81	0.735790	0.989770	0.368810
C821	C82	0.797190	0.018460	0.353120
H631	H63	0.817000	0.084300	0.364000
C831	C83	0.828630	0.949420	0.321420
H641	H64	0.869600	0.968700	0.310900
C841	C84	0.696760	0.058250	0.403510
C851	C85	0.722110	0.083290	0.447500
H651	H65	0.762900	0.057500	0.455700
C861	C86	0.686520	0.146590	0.479030
H661	H66	0.703300	0.163500	0.508500
C871	C87	0.625220	0.185210	0.466590
C881	C88	0.599910	0.159870	0.422550
H671	H67	0.558900	0.185000	0.414400
C891	C89	0.635770	0.097390	0.391040
H681	H68	0.619300	0.081400	0.361400
C901	C90	0.484080	0.343260	0.482130
H691	H69	0.506400	0.404500	0.469400
C911	C91	0.417040	0.344110	0.483470
H701	H70	0.394600	0.408000	0.473300
C921	C92	0.278170	0.229470	0.541290
H711	H71	0.300600	0.216100	0.569000
H721	H72	0.188800	0.214300	0.568800
C931	C93	0.211270	0.228900	0.541370
C941	C94	0.073280	0.322520	0.465360
C951	C95	0.018470	0.280550	0.442800
H731	H73	0.004200	0.206900	0.448600
C961	C96	0.986180	0.349370	0.412060
H741	H74	0.950100	0.321200	0.396700
C971	C97	0.005840	0.459930	0.403270
C981	C98	0.060240	0.501430	0.425630
H751	H75	0.074200	0.575300	0.419800
C991	C99	0.093980	0.432550	0.456820
H761	H76	0.130400	0.460400	0.471900
C1001	C100	0.879560	0.564950	0.318300
H771	H77	0.840200	0.539300	0.306800
C1011	C101	0.913340	0.503520	0.352460
H781	H78	0.895100	0.436900	0.364000
C1021	C102	0.971720	0.536650	0.369650
C1031	C103	0.997390	0.635040	0.352720
H791	H79	0.037400	0.658500	0.363800
C1041	C104	0.965990	0.701940	0.319500
H801	H80	0.984200	0.769700	0.309100
N71	N7	0.798940	0.850970	0.305300
N81	N8	0.906870	0.665640	0.302100
C1051	C105	0.517450	0.250000	0.000000
C1061	C106	0.383450	0.250000	0.000000
C1071	C107	0.311700	0.250000	0.000000
C1081	C108	0.177560	0.250000	0.000000
N91	N9	0.588730	0.250000	0.000000
N101	N10	0.108310	0.250000	0.000000
C1091	C109	0.517450	0.250000	0.500000
C1101	C110	0.383450	0.250000	0.500000
C1111	C111	0.311700	0.250000	0.500000
C1121	C112	0.177560	0.250000	0.500000
N111	N11	0.588730	0.250000	0.500000
N121	N12	0.108310	0.250000	0.500000
Co11	Co1	0.848070	0.745390	0.750000
Co21	Co2	0.848070	0.754610	0.250000
C1131	C113	0.262230	0.321650	0.321010
H811	H81	0.281800	0.255500	0.310200
C1141	C114	0.294030	0.390970	0.352760
H821	H82	0.335000	0.371700	0.363300
C1151	C115	0.264210	0.489770	0.368810
C1161	C116	0.202810	0.518460	0.353120
H831	H83	0.183000	0.584300	0.364000
C1171	C117	0.171370	0.449420	0.321420
H841	H84	0.130400	0.468700	0.310900
C1181	C118	0.303240	0.558250	0.403510
C1191	C119	0.277890	0.583290	0.447500
H851	H85	0.237100	0.557500	0.455700
C1201	C120	0.313480	0.646590	0.479030
H861	H86	0.296700	0.663500	0.508500
C1211	C121	0.374780	0.685210	0.466590
C1221	C122	0.400090	0.659870	0.422550
H871	H87	0.441100	0.685000	0.414400
C1231	C123	0.364230	0.597390	0.391040
H881	H88	0.380700	0.581400	0.361400
C1241	C124	0.515920	0.843260	0.482130
H891	H89	0.493600	0.904500	0.469400
C1251	C125	0.582960	0.844110	0.483470
H901	H90	0.605400	0.908000	0.473300
C1261	C126	0.721830	0.729470	0.541290
H911	H91	0.699400	0.716100	0.569000
H921	H92	0.811200	0.714300	0.568800
C1271	C127	0.788730	0.728900	0.541370
C1281	C128	0.926720	0.822520	0.465360
C1291	C129	0.981530	0.780550	0.442800
H931	H93	0.995800	0.706900	0.448600
C1301	C130	0.013820	0.849370	0.412060
H941	H94	0.049900	0.821200	0.396700
C1311	C131	0.994160	0.959930	0.403270
C1321	C132	0.939760	0.001430	0.425630
H951	H95	0.925800	0.075300	0.419800
C1331	C133	0.906020	0.932550	0.456820
H961	H96	0.869600	0.960400	0.471900
C1341	C134	0.120440	0.064950	0.318300
H971	H97	0.159800	0.039300	0.306800
C1351	C135	0.086660	0.003520	0.352460
H981	H98	0.104900	0.936900	0.364000
C1361	C136	0.028280	0.036650	0.369650
C1371	C137	0.002610	0.135040	0.352720
H991	H99	0.962600	0.158500	0.363800
C1381	C138	0.034010	0.201940	0.319500
H1001	H100	0.015800	0.269700	0.309100
N131	N13	0.201060	0.350970	0.305300
N141	N14	0.093130	0.165640	0.302100
C1391	C139	0.262230	0.178350	0.678990
H1011	H101	0.281800	0.244500	0.689800
C1401	C140	0.294030	0.109030	0.647240
H1021	H102	0.335000	0.128300	0.636700
C1411	C141	0.264210	0.010230	0.631190
C1421	C142	0.202810	0.981540	0.646880
H1031	H103	0.183000	0.915700	0.636000
C1431	C143	0.171370	0.050580	0.678580
H1041	H104	0.130400	0.031300	0.689100
C1441	C144	0.303240	0.941750	0.596490
C1451	C145	0.277890	0.916710	0.552500
H1051	H105	0.237100	0.942500	0.544300
C1461	C146	0.313480	0.853410	0.520970
H1061	H106	0.296700	0.836500	0.491500
C1471	C147	0.374780	0.814790	0.533410
C1481	C148	0.400090	0.840130	0.577450
H1071	H107	0.441100	0.815000	0.585600
C1491	C149	0.364230	0.902610	0.608960
H1081	H108	0.380700	0.918600	0.638600
C1501	C150	0.515920	0.656740	0.517870
H1091	H109	0.493600	0.595500	0.530600
C1511	C151	0.582960	0.655890	0.516530
H1101	H110	0.605400	0.592000	0.526700
C1521	C152	0.721830	0.770530	0.458710
H1111	H111	0.699400	0.783900	0.431000
H1121	H112	0.811200	0.785700	0.431200
C1531	C153	0.788730	0.771100	0.458630
C1541	C154	0.926720	0.677480	0.534640
C1551	C155	0.981530	0.719450	0.557200
H1131	H113	0.995800	0.793100	0.551400
C1561	C156	0.013820	0.650630	0.587940
H1141	H114	0.049900	0.678800	0.603300
C1571	C157	0.994160	0.540070	0.596730
C1581	C158	0.939760	0.498570	0.574370
H1151	H115	0.925800	0.424700	0.580200
C1591	C159	0.906020	0.567450	0.543180
H1161	H116	0.869600	0.539600	0.528100
C1601	C160	0.120440	0.435050	0.681700
H1171	H117	0.159800	0.460700	0.693200
C1611	C161	0.086660	0.496480	0.647540
H1181	H118	0.104900	0.563100	0.636000
C1621	C162	0.028280	0.463350	0.630350
C1631	C163	0.002610	0.364960	0.647280
H1191	H119	0.962600	0.341500	0.636200
C1641	C164	0.034010	0.298060	0.680500
H1201	H120	0.015800	0.230300	0.690900
N151	N15	0.201060	0.149030	0.694700
N161	N16	0.093130	0.334360	0.697900
C1651	C165	0.262230	0.321650	0.178990
H1211	H121	0.281800	0.255500	0.189800
C1661	C166	0.294030	0.390970	0.147240
H1221	H122	0.335000	0.371700	0.136700
C1671	C167	0.264210	0.489770	0.131190
C1681	C168	0.202810	0.518460	0.146880
H1231	H123	0.183000	0.584300	0.136000
C1691	C169	0.171370	0.449420	0.178580
H1241	H124	0.130400	0.468700	0.189100
C1701	C170	0.303240	0.558250	0.096490
C1711	C171	0.277890	0.583290	0.052500
H1251	H125	0.237100	0.557500	0.044300
C1721	C172	0.313480	0.646590	0.020970
H1261	H126	0.296700	0.663500	0.991500
C1731	C173	0.374780	0.685210	0.033410
C1741	C174	0.400090	0.659870	0.077450
H1271	H127	0.441100	0.685000	0.085600
C1751	C175	0.364230	0.597390	0.108960
H1281	H128	0.380700	0.581400	0.138600
C1761	C176	0.515920	0.843260	0.017870
H1291	H129	0.493600	0.904500	0.030600
C1771	C177	0.582960	0.844110	0.016530
H1301	H130	0.605400	0.908000	0.026700
C1781	C178	0.721830	0.729470	0.958710
H1311	H131	0.699400	0.716100	0.931000
H1321	H132	0.811200	0.714300	0.931200
C1791	C179	0.788730	0.728900	0.958630
C1801	C180	0.926720	0.822520	0.034640
C1811	C181	0.981530	0.780550	0.057200
H1331	H133	0.995800	0.706900	0.051400
C1821	C182	0.013820	0.849370	0.087940
H1341	H134	0.049900	0.821200	0.103300
C1831	C183	0.994160	0.959930	0.096730
C1841	C184	0.939760	0.001430	0.074370
H1351	H135	0.925800	0.075300	0.080200
C1851	C185	0.906020	0.932550	0.043180
H1361	H136	0.869600	0.960400	0.028100
C1861	C186	0.120440	0.064950	0.181700
H1371	H137	0.159800	0.039300	0.193200
C1871	C187	0.086660	0.003520	0.147540
H1381	H138	0.104900	0.936900	0.136000
C1881	C188	0.028280	0.036650	0.130350
C1891	C189	0.002610	0.135040	0.147280
H1391	H139	0.962600	0.158500	0.136200
C1901	C190	0.034010	0.201940	0.180500
H1401	H140	0.015800	0.269700	0.190900
N171	N17	0.201060	0.350970	0.194700
N181	N18	0.093130	0.165640	0.197900
C1911	C191	0.262230	0.178350	0.821010
H1411	H141	0.281800	0.244500	0.810200
C1921	C192	0.294030	0.109030	0.852760
H1421	H142	0.335000	0.128300	0.863300
C1931	C193	0.264210	0.010230	0.868810
C1941	C194	0.202810	0.981540	0.853120
H1431	H143	0.183000	0.915700	0.864000
C1951	C195	0.171370	0.050580	0.821420
H1441	H144	0.130400	0.031300	0.810900
C1961	C196	0.303240	0.941750	0.903510
C1971	C197	0.277890	0.916710	0.947500
H1451	H145	0.237100	0.942500	0.955700
C1981	C198	0.313480	0.853410	0.979030
H1461	H146	0.296700	0.836500	0.008500
C1991	C199	0.374780	0.814790	0.966590
C2001	C200	0.400090	0.840130	0.922550
H1471	H147	0.441100	0.815000	0.914400
C2011	C201	0.364230	0.902610	0.891040
H1481	H148	0.380700	0.918600	0.861400
C2021	C202	0.515920	0.656740	0.982130
H1491	H149	0.493600	0.595500	0.969400
C2031	C203	0.582960	0.655890	0.983470
H1501	H150	0.605400	0.592000	0.973300
C2041	C204	0.721830	0.770530	0.041290
H1511	H151	0.699400	0.783900	0.069000
H1521	H152	0.811200	0.785700	0.068800
C2051	C205	0.788730	0.771100	0.041370
C2061	C206	0.926720	0.677480	0.965360
C2071	C207	0.981530	0.719450	0.942800
H1531	H153	0.995800	0.793100	0.948600
C2081	C208	0.013820	0.650630	0.912060
H1541	H154	0.049900	0.678800	0.896700
C2091	C209	0.994160	0.540070	0.903270
C2101	C210	0.939760	0.498570	0.925630
H1551	H155	0.925800	0.424700	0.919800
C2111	C211	0.906020	0.567450	0.956820
H1561	H156	0.869600	0.539600	0.971900
C2121	C212	0.120440	0.435050	0.818300
H1571	H157	0.159800	0.460700	0.806800
C2131	C213	0.086660	0.496480	0.852460
H1581	H158	0.104900	0.563100	0.864000
C2141	C214	0.028280	0.463350	0.869650
C2151	C215	0.002610	0.364960	0.852720
H1591	H159	0.962600	0.341500	0.863800
C2161	C216	0.034010	0.298060	0.819500
H1601	H160	0.015800	0.230300	0.809100
N191	N19	0.201060	0.149030	0.805300
N201	N20	0.093130	0.334360	0.802100
C2171	C217	0.482550	0.750000	0.500000
C2181	C218	0.616550	0.750000	0.500000
C2191	C219	0.688300	0.750000	0.500000
C2201	C220	0.822440	0.750000	0.500000
N211	N21	0.411270	0.750000	0.500000
N221	N22	0.891690	0.750000	0.500000
C2211	C221	0.482550	0.750000	0.000000
C2221	C222	0.616550	0.750000	0.000000
C2231	C223	0.688300	0.750000	0.000000
C2241	C224	0.822440	0.750000	0.000000
N231	N23	0.411270	0.750000	0.000000
N241	N24	0.891690	0.750000	0.000000
Co31	Co3	0.151930	0.254610	0.250000
Co41	Co4	0.151930	0.245390	0.750000
