data_VOXQOQ_clean_PM
_symmetry_space_group_name_H-M	'P1'
_cell_length_a	12.538200
_cell_length_b	16.205200
_cell_length_c	20.082900
_cell_angle_alpha	90.000000
_cell_angle_beta	94.732000
_cell_angle_gamma	90.000000
_symmetry_Int_Tables_number 1

loop_
_symmetry_equiv_pos_as_xyz
'x,y,z'

loop_
_atom_site_label
_atom_site_type_symbol
_atom_site_fract_x
_atom_site_fract_y
_atom_site_fract_z
Zn11	Zn1	0.288470	0.409810	0.412050
C11	C1	0.414800	0.541910	0.343320
C21	C2	0.518300	0.531500	0.384160
H11	H1	0.510800	0.489900	0.417500
H21	H2	0.538400	0.582800	0.405600
H31	H3	0.572500	0.515000	0.355800
C31	C3	0.157300	0.296100	0.314000
C41	C4	0.218400	0.307600	0.254800
H41	H4	0.190000	0.272100	0.219400
H51	H5	0.292300	0.294200	0.266200
H61	H6	0.212800	0.364000	0.240300
C51	C5	0.464800	0.321600	0.416280
C61	C6	0.573400	0.288000	0.438410
C71	C7	0.630300	0.241600	0.393660
H71	H7	0.599300	0.230800	0.350900
C81	C8	0.729600	0.212400	0.412230
H81	H8	0.766500	0.182700	0.381900
C91	C9	0.777500	0.226900	0.477390
C101	C10	0.881500	0.196700	0.498390
H91	H9	0.919200	0.166300	0.468900
N11	N1	0.325200	0.500740	0.350970
N21	N2	0.251500	0.529150	0.301910
N31	N3	0.295300	0.584840	0.267760
N41	N4	0.399000	0.595380	0.292600
N51	N5	0.173500	0.334690	0.372210
N61	N6	0.099400	0.305360	0.411620
N71	N7	0.040900	0.251180	0.378390
N81	N8	0.076100	0.243990	0.316290
O11	O1	0.416660	0.362600	0.458730
O21	O2	0.426900	0.311070	0.358150
Zn21	Zn2	0.788470	0.909810	0.412050
C111	C11	0.914800	0.041910	0.343320
C121	C12	0.018300	0.031500	0.384160
H101	H10	0.010800	0.989900	0.417500
H111	H11	0.038400	0.082800	0.405600
H121	H12	0.072500	0.015000	0.355800
C131	C13	0.657300	0.796100	0.314000
C141	C14	0.718400	0.807600	0.254800
H131	H13	0.690000	0.772100	0.219400
H141	H14	0.792300	0.794200	0.266200
H151	H15	0.712800	0.864000	0.240300
C151	C15	0.964800	0.821600	0.416280
C161	C16	0.073400	0.788000	0.438410
C171	C17	0.130300	0.741600	0.393660
H161	H16	0.099300	0.730800	0.350900
C181	C18	0.229600	0.712400	0.412230
H171	H17	0.266500	0.682700	0.381900
C191	C19	0.277500	0.726900	0.477390
C201	C20	0.381500	0.696700	0.498390
H181	H18	0.419200	0.666300	0.468900
N91	N9	0.825200	0.000740	0.350970
N101	N10	0.751500	0.029150	0.301910
N111	N11	0.795300	0.084840	0.267760
N121	N12	0.899000	0.095380	0.292600
N131	N13	0.673500	0.834690	0.372210
N141	N14	0.599400	0.805360	0.411620
N151	N15	0.540900	0.751180	0.378390
N161	N16	0.576100	0.743990	0.316290
O31	O3	0.916660	0.862600	0.458730
O41	O4	0.926900	0.811070	0.358150
Zn31	Zn3	0.711530	0.409810	0.087950
C211	C21	0.585200	0.541910	0.156680
C221	C22	0.481700	0.531500	0.115840
H191	H19	0.489200	0.489900	0.082500
H201	H20	0.461600	0.582800	0.094400
H211	H21	0.427500	0.515000	0.144200
C231	C23	0.842700	0.296100	0.186000
C241	C24	0.781600	0.307600	0.245200
H221	H22	0.810000	0.272100	0.280600
H231	H23	0.707700	0.294200	0.233800
H241	H24	0.787200	0.364000	0.259700
C251	C25	0.535200	0.321600	0.083720
C261	C26	0.426600	0.288000	0.061590
C271	C27	0.369700	0.241600	0.106340
H251	H25	0.400700	0.230800	0.149100
C281	C28	0.270400	0.212400	0.087770
H261	H26	0.233500	0.182700	0.118100
C291	C29	0.222500	0.226900	0.022610
C301	C30	0.118500	0.196700	0.001610
H271	H27	0.080800	0.166300	0.031100
N171	N17	0.674800	0.500740	0.149030
N181	N18	0.748500	0.529150	0.198090
N191	N19	0.704700	0.584840	0.232240
N201	N20	0.601000	0.595380	0.207400
N211	N21	0.826500	0.334690	0.127790
N221	N22	0.900600	0.305360	0.088380
N231	N23	0.959100	0.251180	0.121610
N241	N24	0.923900	0.243990	0.183710
O51	O5	0.583340	0.362600	0.041270
O61	O6	0.573100	0.311070	0.141850
Zn41	Zn4	0.211530	0.909810	0.087950
C311	C31	0.085200	0.041910	0.156680
C321	C32	0.981700	0.031500	0.115840
H281	H28	0.989200	0.989900	0.082500
H291	H29	0.961600	0.082800	0.094400
H301	H30	0.927500	0.015000	0.144200
C331	C33	0.342700	0.796100	0.186000
C341	C34	0.281600	0.807600	0.245200
H311	H31	0.310000	0.772100	0.280600
H321	H32	0.207700	0.794200	0.233800
H331	H33	0.287200	0.864000	0.259700
C351	C35	0.035200	0.821600	0.083720
C361	C36	0.926600	0.788000	0.061590
C371	C37	0.869700	0.741600	0.106340
H341	H34	0.900700	0.730800	0.149100
C381	C38	0.770400	0.712400	0.087770
H351	H35	0.733500	0.682700	0.118100
C391	C39	0.722500	0.726900	0.022610
C401	C40	0.618500	0.696700	0.001610
H361	H36	0.580800	0.666300	0.031100
N251	N25	0.174800	0.000740	0.149030
N261	N26	0.248500	0.029150	0.198090
N271	N27	0.204700	0.084840	0.232240
N281	N28	0.101000	0.095380	0.207400
N291	N29	0.326500	0.834690	0.127790
N301	N30	0.400600	0.805360	0.088380
N311	N31	0.459100	0.751180	0.121610
N321	N32	0.423900	0.743990	0.183710
O71	O7	0.083340	0.862600	0.041270
O81	O8	0.073100	0.811070	0.141850
Zn51	Zn5	0.711530	0.590190	0.587950
C411	C41	0.585200	0.458090	0.656680
C421	C42	0.481700	0.468500	0.615840
H371	H37	0.489200	0.510100	0.582500
H381	H38	0.461600	0.417200	0.594400
H391	H39	0.427500	0.485000	0.644200
C431	C43	0.842700	0.703900	0.686000
C441	C44	0.781600	0.692400	0.745200
H401	H40	0.810000	0.727900	0.780600
H411	H41	0.707700	0.705800	0.733800
H421	H42	0.787200	0.636000	0.759700
C451	C45	0.535200	0.678400	0.583720
C461	C46	0.426600	0.712000	0.561590
C471	C47	0.369700	0.758400	0.606340
H431	H43	0.400700	0.769200	0.649100
C481	C48	0.270400	0.787600	0.587770
H441	H44	0.233500	0.817300	0.618100
C491	C49	0.222500	0.773100	0.522610
C501	C50	0.118500	0.803300	0.501610
H451	H45	0.080800	0.833700	0.531100
N331	N33	0.674800	0.499260	0.649030
N341	N34	0.748500	0.470850	0.698090
N351	N35	0.704700	0.415160	0.732240
N361	N36	0.601000	0.404620	0.707400
N371	N37	0.826500	0.665310	0.627790
N381	N38	0.900600	0.694640	0.588380
N391	N39	0.959100	0.748820	0.621610
N401	N40	0.923900	0.756010	0.683710
O91	O9	0.583340	0.637400	0.541270
O101	O10	0.573100	0.688930	0.641850
Zn61	Zn6	0.211530	0.090190	0.587950
C511	C51	0.085200	0.958090	0.656680
C521	C52	0.981700	0.968500	0.615840
H461	H46	0.989200	0.010100	0.582500
H471	H47	0.961600	0.917200	0.594400
H481	H48	0.927500	0.985000	0.644200
C531	C53	0.342700	0.203900	0.686000
C541	C54	0.281600	0.192400	0.745200
H491	H49	0.310000	0.227900	0.780600
H501	H50	0.207700	0.205800	0.733800
H511	H51	0.287200	0.136000	0.759700
C551	C55	0.035200	0.178400	0.583720
C561	C56	0.926600	0.212000	0.561590
C571	C57	0.869700	0.258400	0.606340
H521	H52	0.900700	0.269200	0.649100
C581	C58	0.770400	0.287600	0.587770
H531	H53	0.733500	0.317300	0.618100
C591	C59	0.722500	0.273100	0.522610
C601	C60	0.618500	0.303300	0.501610
H541	H54	0.580800	0.333700	0.531100
N411	N41	0.174800	0.999260	0.649030
N421	N42	0.248500	0.970850	0.698090
N431	N43	0.204700	0.915160	0.732240
N441	N44	0.101000	0.904620	0.707400
N451	N45	0.326500	0.165310	0.627790
N461	N46	0.400600	0.194640	0.588380
N471	N47	0.459100	0.248820	0.621610
N481	N48	0.423900	0.256010	0.683710
O111	O11	0.083340	0.137400	0.541270
O121	O12	0.073100	0.188930	0.641850
Zn71	Zn7	0.288470	0.590190	0.912050
C611	C61	0.414800	0.458090	0.843320
C621	C62	0.518300	0.468500	0.884160
H551	H55	0.510800	0.510100	0.917500
H561	H56	0.538400	0.417200	0.905600
H571	H57	0.572500	0.485000	0.855800
C631	C63	0.157300	0.703900	0.814000
C641	C64	0.218400	0.692400	0.754800
H581	H58	0.190000	0.727900	0.719400
H591	H59	0.292300	0.705800	0.766200
H601	H60	0.212800	0.636000	0.740300
C651	C65	0.464800	0.678400	0.916280
C661	C66	0.573400	0.712000	0.938410
C671	C67	0.630300	0.758400	0.893660
H611	H61	0.599300	0.769200	0.850900
C681	C68	0.729600	0.787600	0.912230
H621	H62	0.766500	0.817300	0.881900
C691	C69	0.777500	0.773100	0.977390
C701	C70	0.881500	0.803300	0.998390
H631	H63	0.919200	0.833700	0.968900
N491	N49	0.325200	0.499260	0.850970
N501	N50	0.251500	0.470850	0.801910
N511	N51	0.295300	0.415160	0.767760
N521	N52	0.399000	0.404620	0.792600
N531	N53	0.173500	0.665310	0.872210
N541	N54	0.099400	0.694640	0.911620
N551	N55	0.040900	0.748820	0.878390
N561	N56	0.076100	0.756010	0.816290
O131	O13	0.416660	0.637400	0.958730
O141	O14	0.426900	0.688930	0.858150
Zn81	Zn8	0.788470	0.090190	0.912050
C711	C71	0.914800	0.958090	0.843320
C721	C72	0.018300	0.968500	0.884160
H641	H64	0.010800	0.010100	0.917500
H651	H65	0.038400	0.917200	0.905600
H661	H66	0.072500	0.985000	0.855800
C731	C73	0.657300	0.203900	0.814000
C741	C74	0.718400	0.192400	0.754800
H671	H67	0.690000	0.227900	0.719400
H681	H68	0.792300	0.205800	0.766200
H691	H69	0.712800	0.136000	0.740300
C751	C75	0.964800	0.178400	0.916280
C761	C76	0.073400	0.212000	0.938410
C771	C77	0.130300	0.258400	0.893660
H701	H70	0.099300	0.269200	0.850900
C781	C78	0.229600	0.287600	0.912230
H711	H71	0.266500	0.317300	0.881900
C791	C79	0.277500	0.273100	0.977390
C801	C80	0.381500	0.303300	0.998390
H721	H72	0.419200	0.333700	0.968900
N571	N57	0.825200	0.999260	0.850970
N581	N58	0.751500	0.970850	0.801910
N591	N59	0.795300	0.915160	0.767760
N601	N60	0.899000	0.904620	0.792600
N611	N61	0.673500	0.165310	0.872210
N621	N62	0.599400	0.194640	0.911620
N631	N63	0.540900	0.248820	0.878390
N641	N64	0.576100	0.256010	0.816290
O151	O15	0.916660	0.137400	0.958730
O161	O16	0.926900	0.188930	0.858150
Zn91	Zn9	0.500000	0.668480	0.250000
Zn101	Zn10	0.000000	0.168480	0.250000
Zn111	Zn11	0.500000	0.331520	0.750000
Zn121	Zn12	0.000000	0.831520	0.750000
