data_VOYLUS_clean_PM
_symmetry_space_group_name_H-M	'P1'
_cell_length_a	16.097100
_cell_length_b	19.527200
_cell_length_c	14.409800
_cell_angle_alpha	90.000000
_cell_angle_beta	101.346000
_cell_angle_gamma	90.000000
_symmetry_Int_Tables_number 1

loop_
_symmetry_equiv_pos_as_xyz
'x,y,z'

loop_
_atom_site_label
_atom_site_type_symbol
_atom_site_fract_x
_atom_site_fract_y
_atom_site_fract_z
Ag11	Ag1	0.205070	0.286160	0.123410
N11	N1	0.106210	0.382080	0.081700
N21	N2	0.334120	0.338400	0.116500
N31	N3	0.231400	0.308930	0.288300
N41	N4	0.125260	0.209760	0.033100
C11	C1	0.136400	0.443740	0.065600
C21	C2	0.042000	0.380000	0.128500
H11	H1	0.180300	0.445800	0.030200
C31	C3	0.108000	0.505400	0.097200
C41	C4	0.007800	0.437700	0.160200
H21	H2	0.019300	0.336700	0.140200
C51	C5	0.042100	0.500200	0.145600
C61	C6	0.144900	0.571170	0.076800
H31	H3	0.961300	0.434500	0.191700
H41	H4	0.020300	0.540400	0.169100
C71	C7	0.095700	0.629820	0.064500
C81	C8	0.229200	0.577070	0.067700
H51	H5	0.038600	0.627700	0.072700
C91	C9	0.128000	0.691060	0.040600
C101	C10	0.261800	0.639090	0.047000
H61	H6	0.264600	0.537700	0.075900
H71	H7	0.092300	0.730200	0.030700
C111	C11	0.211600	0.696870	0.030700
H81	H8	0.320100	0.642200	0.043800
C121	C12	0.244700	0.765090	0.010200
C131	C13	0.318000	0.789140	0.084800
C141	C14	0.207000	0.802850	0.935000
C151	C15	0.389800	0.818400	0.063200
C161	C16	0.313000	0.780480	0.178200
C171	C17	0.225000	0.877390	0.925100
C181	C18	0.144300	0.772260	0.856000
C191	C19	0.455800	0.838600	0.135400
H91	H9	0.394100	0.824800	0.998900
H101	H10	0.264400	0.759300	0.193600
C201	C20	0.377800	0.802100	0.250300
C211	C21	0.235200	0.904250	0.838500
C221	C22	0.228900	0.921890	0.000300
C231	C23	0.161900	0.710840	0.814400
C241	C24	0.067500	0.803990	0.818200
C251	C25	0.449500	0.831400	0.229400
H111	H11	0.505900	0.857400	0.120100
H121	H12	0.372600	0.796700	0.314400
C261	C26	0.249900	0.972740	0.827900
H131	H13	0.231800	0.874500	0.785700
H141	H14	0.221600	0.904900	0.059900
C271	C27	0.243200	0.990890	0.989500
C281	C28	0.108100	0.684190	0.736100
H151	H15	0.212200	0.686700	0.840600
H161	H16	0.053100	0.845600	0.845300
C291	C29	0.011900	0.776270	0.742000
C301	C30	0.519500	0.851500	0.308600
C311	C31	0.253300	0.017930	0.903200
H171	H17	0.258000	0.989500	0.768400
H181	H18	0.246400	0.020600	0.042400
C321	C32	0.032200	0.716550	0.697800
H191	H19	0.123200	0.643200	0.708100
H201	H20	0.959100	0.798100	0.719400
C331	C33	0.600000	0.826920	0.312600
C341	C34	0.506100	0.892100	0.382500
C351	C35	0.264300	0.092390	0.890600
C361	C36	0.976900	0.688430	0.611000
H211	H21	0.609700	0.799700	0.261100
H221	H22	0.451700	0.910800	0.382800
C371	C37	0.573700	0.905000	0.456700
C381	C38	0.226000	0.123690	0.806900
C391	C39	0.309900	0.134400	0.959900
C401	C40	0.923100	0.730830	0.548900
C411	C41	0.980000	0.620430	0.583900
C421	C42	0.650600	0.877600	0.454400
H231	H23	0.566100	0.932800	0.508500
H241	H24	0.193600	0.095700	0.759100
H251	H25	0.337300	0.115800	0.018900
C431	C43	0.315200	0.203800	0.942300
H261	H26	0.920200	0.777700	0.565500
H271	H27	0.015300	0.589000	0.623900
C441	C44	0.932400	0.598290	0.499700
H281	H28	0.696100	0.886700	0.505900
C451	C45	0.276000	0.229800	0.856900
H291	H29	0.345900	0.233200	0.989400
C461	C46	0.880300	0.643980	0.443400
H301	H30	0.935400	0.552000	0.480500
H311	H31	0.280600	0.277500	0.845800
H321	H32	0.846900	0.628200	0.385600
Ag21	Ag2	0.794930	0.786160	0.376590
N51	N5	0.893790	0.882080	0.418300
N61	N6	0.665880	0.838400	0.383500
N71	N7	0.768600	0.808930	0.211700
N81	N8	0.874740	0.709760	0.466900
C471	C47	0.863600	0.943740	0.434400
C481	C48	0.958000	0.880000	0.371500
H331	H33	0.819700	0.945800	0.469800
C491	C49	0.892000	0.005400	0.402800
C501	C50	0.992200	0.937700	0.339800
H341	H34	0.980700	0.836700	0.359800
C511	C51	0.957900	0.000200	0.354400
C521	C52	0.855100	0.071170	0.423200
H351	H35	0.038700	0.934500	0.308300
H361	H36	0.979700	0.040400	0.330900
C531	C53	0.904300	0.129820	0.435500
C541	C54	0.770800	0.077070	0.432300
H371	H37	0.961400	0.127700	0.427300
C551	C55	0.872000	0.191060	0.459400
C561	C56	0.738200	0.139090	0.453000
H381	H38	0.735400	0.037700	0.424100
H391	H39	0.907700	0.230200	0.469300
C571	C57	0.788400	0.196870	0.469300
H401	H40	0.679900	0.142200	0.456200
C581	C58	0.755300	0.265090	0.489800
C591	C59	0.682000	0.289140	0.415200
C601	C60	0.793000	0.302850	0.565000
C611	C61	0.610200	0.318400	0.436800
C621	C62	0.687000	0.280480	0.321800
C631	C63	0.775000	0.377390	0.574900
C641	C64	0.855700	0.272260	0.644000
C651	C65	0.544200	0.338600	0.364600
H411	H41	0.605900	0.324800	0.501100
H421	H42	0.735600	0.259300	0.306400
C661	C66	0.622200	0.302100	0.249700
C671	C67	0.764800	0.404250	0.661500
C681	C68	0.771100	0.421890	0.499700
C691	C69	0.838100	0.210840	0.685600
C701	C70	0.932500	0.303990	0.681800
C711	C71	0.550500	0.331400	0.270600
H431	H43	0.494100	0.357400	0.379900
H441	H44	0.627400	0.296700	0.185600
C721	C72	0.750100	0.472740	0.672100
H451	H45	0.768200	0.374500	0.714300
H461	H46	0.778400	0.404900	0.440100
C731	C73	0.756800	0.490890	0.510500
C741	C74	0.891900	0.184190	0.763900
H471	H47	0.787800	0.186700	0.659400
H481	H48	0.946900	0.345600	0.654700
C751	C75	0.988100	0.276270	0.758000
C761	C76	0.480500	0.351500	0.191400
C771	C77	0.746700	0.517930	0.596800
H491	H49	0.742000	0.489500	0.731600
H501	H50	0.753600	0.520600	0.457600
C781	C78	0.967800	0.216550	0.802200
H511	H51	0.876800	0.143200	0.791900
H521	H52	0.040900	0.298100	0.780600
C791	C79	0.400000	0.326920	0.187400
C801	C80	0.493900	0.392100	0.117500
C811	C81	0.735700	0.592390	0.609400
C821	C82	0.023100	0.188430	0.889000
H531	H53	0.390300	0.299700	0.238900
H541	H54	0.548300	0.410800	0.117200
C831	C83	0.426300	0.405000	0.043300
C841	C84	0.774000	0.623690	0.693100
C851	C85	0.690100	0.634400	0.540100
C861	C86	0.076900	0.230830	0.951100
C871	C87	0.020000	0.120430	0.916100
C881	C88	0.349400	0.377600	0.045600
H551	H55	0.433900	0.432800	0.991500
H561	H56	0.806400	0.595700	0.740900
H571	H57	0.662700	0.615800	0.481100
C891	C89	0.684800	0.703800	0.557700
H581	H58	0.079800	0.277700	0.934500
H591	H59	0.984700	0.089000	0.876100
C901	C90	0.067600	0.098290	0.000300
H601	H60	0.303900	0.386700	0.994100
C911	C91	0.724000	0.729800	0.643100
H611	H61	0.654100	0.733200	0.510600
C921	C92	0.119700	0.143980	0.056600
H621	H62	0.064600	0.052000	0.019500
H631	H63	0.719400	0.777500	0.654200
H641	H64	0.153100	0.128200	0.114400
Ag31	Ag3	0.794930	0.713840	0.876590
N91	N9	0.893790	0.617920	0.918300
N101	N10	0.665880	0.661600	0.883500
N111	N11	0.768600	0.691070	0.711700
N121	N12	0.874740	0.790240	0.966900
C931	C93	0.863600	0.556260	0.934400
C941	C94	0.958000	0.620000	0.871500
H651	H65	0.819700	0.554200	0.969800
C951	C95	0.892000	0.494600	0.902800
C961	C96	0.992200	0.562300	0.839800
H661	H66	0.980700	0.663300	0.859800
C971	C97	0.957900	0.499800	0.854400
C981	C98	0.855100	0.428830	0.923200
H671	H67	0.038700	0.565500	0.808300
H681	H68	0.979700	0.459600	0.830900
C991	C99	0.904300	0.370180	0.935500
C1001	C100	0.770800	0.422930	0.932300
H691	H69	0.961400	0.372300	0.927300
C1011	C101	0.872000	0.308940	0.959400
C1021	C102	0.738200	0.360910	0.953000
H701	H70	0.735400	0.462300	0.924100
H711	H71	0.907700	0.269800	0.969300
C1031	C103	0.788400	0.303130	0.969300
H721	H72	0.679900	0.357800	0.956200
C1041	C104	0.755300	0.234910	0.989800
C1051	C105	0.682000	0.210860	0.915200
C1061	C106	0.793000	0.197150	0.065000
C1071	C107	0.610200	0.181600	0.936800
C1081	C108	0.687000	0.219520	0.821800
C1091	C109	0.775000	0.122610	0.074900
C1101	C110	0.855700	0.227740	0.144000
C1111	C111	0.544200	0.161400	0.864600
H731	H73	0.605900	0.175200	0.001100
H741	H74	0.735600	0.240700	0.806400
C1121	C112	0.622200	0.197900	0.749700
C1131	C113	0.764800	0.095750	0.161500
C1141	C114	0.771100	0.078110	0.999700
C1151	C115	0.838100	0.289160	0.185600
C1161	C116	0.932500	0.196010	0.181800
C1171	C117	0.550500	0.168600	0.770600
H751	H75	0.494100	0.142600	0.879900
H761	H76	0.627400	0.203300	0.685600
C1181	C118	0.750100	0.027260	0.172100
H771	H77	0.768200	0.125500	0.214300
H781	H78	0.778400	0.095100	0.940100
C1191	C119	0.756800	0.009110	0.010500
C1201	C120	0.891900	0.315810	0.263900
H791	H79	0.787800	0.313300	0.159400
H801	H80	0.946900	0.154400	0.154700
C1211	C121	0.988100	0.223730	0.258000
C1221	C122	0.480500	0.148500	0.691400
C1231	C123	0.746700	0.982070	0.096800
H811	H81	0.742000	0.010500	0.231600
H821	H82	0.753600	0.979400	0.957600
C1241	C124	0.967800	0.283450	0.302200
H831	H83	0.876800	0.356800	0.291900
H841	H84	0.040900	0.201900	0.280600
C1251	C125	0.400000	0.173080	0.687400
C1261	C126	0.493900	0.107900	0.617500
C1271	C127	0.735700	0.907610	0.109400
C1281	C128	0.023100	0.311570	0.389000
H851	H85	0.390300	0.200300	0.738900
H861	H86	0.548300	0.089200	0.617200
C1291	C129	0.426300	0.095000	0.543300
C1301	C130	0.774000	0.876310	0.193100
C1311	C131	0.690100	0.865600	0.040100
C1321	C132	0.076900	0.269170	0.451100
C1331	C133	0.020000	0.379570	0.416100
C1341	C134	0.349400	0.122400	0.545600
H871	H87	0.433900	0.067200	0.491500
H881	H88	0.806400	0.904300	0.240900
H891	H89	0.662700	0.884200	0.981100
C1351	C135	0.684800	0.796200	0.057700
H901	H90	0.079800	0.222300	0.434500
H911	H91	0.984700	0.411000	0.376100
C1361	C136	0.067600	0.401710	0.500300
H921	H92	0.303900	0.113300	0.494100
C1371	C137	0.724000	0.770200	0.143100
H931	H93	0.654100	0.766800	0.010600
C1381	C138	0.119700	0.356020	0.556600
H941	H94	0.064600	0.448000	0.519500
H951	H95	0.719400	0.722500	0.154200
H961	H96	0.153100	0.371800	0.614400
Ag41	Ag4	0.205070	0.213840	0.623410
N131	N13	0.106210	0.117920	0.581700
N141	N14	0.334120	0.161600	0.616500
N151	N15	0.231400	0.191070	0.788300
N161	N16	0.125260	0.290240	0.533100
C1391	C139	0.136400	0.056260	0.565600
C1401	C140	0.042000	0.120000	0.628500
H971	H97	0.180300	0.054200	0.530200
C1411	C141	0.108000	0.994600	0.597200
C1421	C142	0.007800	0.062300	0.660200
H981	H98	0.019300	0.163300	0.640200
C1431	C143	0.042100	0.999800	0.645600
C1441	C144	0.144900	0.928830	0.576800
H991	H99	0.961300	0.065500	0.691700
H1001	H100	0.020300	0.959600	0.669100
C1451	C145	0.095700	0.870180	0.564500
C1461	C146	0.229200	0.922930	0.567700
H1011	H101	0.038600	0.872300	0.572700
C1471	C147	0.128000	0.808940	0.540600
C1481	C148	0.261800	0.860910	0.547000
H1021	H102	0.264600	0.962300	0.575900
H1031	H103	0.092300	0.769800	0.530700
C1491	C149	0.211600	0.803130	0.530700
H1041	H104	0.320100	0.857800	0.543800
C1501	C150	0.244700	0.734910	0.510200
C1511	C151	0.318000	0.710860	0.584800
C1521	C152	0.207000	0.697150	0.435000
C1531	C153	0.389800	0.681600	0.563200
C1541	C154	0.313000	0.719520	0.678200
C1551	C155	0.225000	0.622610	0.425100
C1561	C156	0.144300	0.727740	0.356000
C1571	C157	0.455800	0.661400	0.635400
H1051	H105	0.394100	0.675200	0.498900
H1061	H106	0.264400	0.740700	0.693600
C1581	C158	0.377800	0.697900	0.750300
C1591	C159	0.235200	0.595750	0.338500
C1601	C160	0.228900	0.578110	0.500300
C1611	C161	0.161900	0.789160	0.314400
C1621	C162	0.067500	0.696010	0.318200
C1631	C163	0.449500	0.668600	0.729400
H1071	H107	0.505900	0.642600	0.620100
H1081	H108	0.372600	0.703300	0.814400
C1641	C164	0.249900	0.527260	0.327900
H1091	H109	0.231800	0.625500	0.285700
H1101	H110	0.221600	0.595100	0.559900
C1651	C165	0.243200	0.509110	0.489500
C1661	C166	0.108100	0.815810	0.236100
H1111	H111	0.212200	0.813300	0.340600
H1121	H112	0.053100	0.654400	0.345300
C1671	C167	0.011900	0.723730	0.242000
C1681	C168	0.519500	0.648500	0.808600
C1691	C169	0.253300	0.482070	0.403200
H1131	H113	0.258000	0.510500	0.268400
H1141	H114	0.246400	0.479400	0.542400
C1701	C170	0.032200	0.783450	0.197800
H1151	H115	0.123200	0.856800	0.208100
H1161	H116	0.959100	0.701900	0.219400
C1711	C171	0.600000	0.673080	0.812600
C1721	C172	0.506100	0.607900	0.882500
C1731	C173	0.264300	0.407610	0.390600
C1741	C174	0.976900	0.811570	0.111000
H1171	H117	0.609700	0.700300	0.761100
H1181	H118	0.451700	0.589200	0.882800
C1751	C175	0.573700	0.595000	0.956700
C1761	C176	0.226000	0.376310	0.306900
C1771	C177	0.309900	0.365600	0.459900
C1781	C178	0.923100	0.769170	0.048900
C1791	C179	0.980000	0.879570	0.083900
C1801	C180	0.650600	0.622400	0.954400
H1191	H119	0.566100	0.567200	0.008500
H1201	H120	0.193600	0.404300	0.259100
H1211	H121	0.337300	0.384200	0.518900
C1811	C181	0.315200	0.296200	0.442300
H1221	H122	0.920200	0.722300	0.065500
H1231	H123	0.015300	0.911000	0.123900
C1821	C182	0.932400	0.901710	0.999700
H1241	H124	0.696100	0.613300	0.005900
C1831	C183	0.276000	0.270200	0.356900
H1251	H125	0.345900	0.266800	0.489400
C1841	C184	0.880300	0.856020	0.943400
H1261	H126	0.935400	0.948000	0.980500
H1271	H127	0.280600	0.222500	0.345800
H1281	H128	0.846900	0.871800	0.885600
