data_VOYWUB_clean_h_PM
_symmetry_space_group_name_H-M	'P1'
_cell_length_a	6.072000
_cell_length_b	9.530000
_cell_length_c	19.844000
_cell_angle_alpha	90.000000
_cell_angle_beta	90.000000
_cell_angle_gamma	90.000000
_symmetry_Int_Tables_number 1

loop_
_symmetry_equiv_pos_as_xyz
'x,y,z'

loop_
_atom_site_label
_atom_site_type_symbol
_atom_site_fract_x
_atom_site_fract_y
_atom_site_fract_z
Er11	Er1	0.786100	0.467100	0.813700
Er21	Er2	0.713900	0.532900	0.313700
Er31	Er3	0.213900	0.967100	0.686300
Er41	Er4	0.286100	0.032900	0.186300
C11	C1	0.287100	0.625400	0.128000
C21	C2	0.081400	0.561200	0.125700
C31	C3	0.992600	0.523600	0.064000
C41	C4	0.106700	0.547200	0.004000
C51	C5	0.318500	0.604800	0.006800
C61	C6	0.400600	0.648500	0.068400
C71	C7	0.388900	0.670300	0.194400
C81	C8	0.944100	0.540900	0.187300
C91	C9	0.002400	0.507800	0.937100
C101	C10	0.212900	0.374600	0.628000
C111	C11	0.418600	0.438800	0.625700
C121	C12	0.507400	0.476400	0.564000
C131	C13	0.393300	0.452800	0.504000
C141	C14	0.181500	0.395200	0.506800
C151	C15	0.099400	0.351500	0.568400
C161	C16	0.111100	0.329700	0.694400
C171	C17	0.555900	0.459100	0.687300
C181	C18	0.497600	0.492200	0.437100
C191	C19	0.712900	0.125400	0.372000
C201	C20	0.918600	0.061200	0.374300
C211	C21	0.007400	0.023600	0.436000
C221	C22	0.893300	0.047200	0.496000
C231	C23	0.681500	0.104800	0.493200
C241	C24	0.599400	0.148500	0.431600
C251	C25	0.611100	0.170300	0.305600
C261	C26	0.055900	0.040900	0.312700
C271	C27	0.997600	0.007800	0.562900
C281	C28	0.787100	0.874600	0.872000
C291	C29	0.581400	0.938800	0.874300
C301	C30	0.492600	0.976400	0.936000
C311	C31	0.606700	0.952800	0.996000
C321	C32	0.818500	0.895200	0.993200
C331	C33	0.900600	0.851500	0.931600
C341	C34	0.888900	0.829700	0.805600
C351	C35	0.444100	0.959100	0.812700
C361	C36	0.502400	0.992200	0.062900
O11	O1	0.425300	0.803200	0.202200
O21	O2	0.441600	0.577500	0.234100
O31	O3	0.848600	0.426900	0.196600
O41	O4	0.924200	0.640400	0.228500
O51	O5	0.801400	0.494200	0.934400
O61	O6	0.118600	0.496100	0.884900
O71	O7	0.074700	0.196800	0.702200
O81	O8	0.058400	0.422500	0.734100
O91	O9	0.651400	0.573100	0.696600
O101	O10	0.575800	0.359600	0.728500
O111	O11	0.698600	0.505800	0.434400
O121	O12	0.381400	0.503900	0.384900
O131	O13	0.574700	0.303200	0.297800
O141	O14	0.558400	0.077500	0.265900
O151	O15	0.151400	0.926900	0.303400
O161	O16	0.075800	0.140400	0.271500
O171	O17	0.198600	0.994200	0.565600
O181	O18	0.881400	0.996100	0.615100
O191	O19	0.925300	0.696800	0.797800
O201	O20	0.941600	0.922500	0.765900
O211	O21	0.348600	0.073100	0.803400
O221	O22	0.424200	0.859600	0.771500
O231	O23	0.301400	0.005800	0.065600
O241	O24	0.618600	0.003900	0.115100
H11	H1	0.823170	0.472310	0.061550
H21	H2	0.420510	0.615120	0.958830
H31	H3	0.566190	0.704840	0.069290
H41	H4	0.676830	0.527690	0.561550
H51	H5	0.079490	0.384880	0.458830
H61	H6	0.933810	0.295160	0.569290
H71	H7	0.176830	0.972310	0.438450
H81	H8	0.579490	0.115120	0.541170
H91	H9	0.434260	0.205140	0.428950
H101	H10	0.323170	0.027690	0.938450
H111	H11	0.920510	0.884880	0.041170
H121	H12	0.066190	0.795160	0.930710
