data_VOZVAJ01_clean_PM
_symmetry_space_group_name_H-M	'P1'
_cell_length_a	31.895000
_cell_length_b	15.133000
_cell_length_c	31.168000
_cell_angle_alpha	90.000000
_cell_angle_beta	98.082000
_cell_angle_gamma	90.000000
_symmetry_Int_Tables_number 1

loop_
_symmetry_equiv_pos_as_xyz
'x,y,z'

loop_
_atom_site_label
_atom_site_type_symbol
_atom_site_fract_x
_atom_site_fract_y
_atom_site_fract_z
Zn11	Zn1	0.808350	0.349700	0.214460
I11	I1	0.741700	0.285940	0.181340
I21	I2	0.845330	0.304440	0.288020
N11	N1	0.849400	0.326700	0.170300
C11	C1	0.837400	0.281400	0.133700
H11	H1	0.809500	0.257900	0.128500
C21	C2	0.864100	0.267700	0.103300
H21	H2	0.854500	0.236800	0.077200
C31	C3	0.905100	0.299400	0.111100
C41	C4	0.917700	0.345000	0.149000
H31	H3	0.945500	0.368600	0.155100
C51	C5	0.888700	0.355600	0.178200
H41	H4	0.897600	0.384900	0.204800
C61	C6	0.933900	0.288200	0.078100
N21	N2	0.928000	0.218300	0.052600
C71	C7	0.956700	0.208900	0.025500
N31	N3	0.987700	0.266600	0.021200
C81	C8	0.989600	0.334600	0.048200
N41	N4	0.964800	0.348500	0.077800
N51	N5	0.944900	0.983700	0.943200
C91	C9	0.976200	0.041300	0.942300
H51	H5	0.995300	0.032100	0.922000
C101	C10	0.982200	0.113700	0.969400
H61	H6	0.005200	0.152900	0.967900
C111	C11	0.954400	0.128300	0.998600
C121	C12	0.922200	0.066800	0.001200
H71	H7	0.903200	0.073600	0.021900
C131	C13	0.918600	0.995800	0.973000
H81	H8	0.896700	0.953800	0.974800
Zn21	Zn2	0.930040	0.890950	0.895420
I31	I3	0.887650	0.768360	0.923630
I41	I4	0.995020	0.866810	0.857150
N61	N6	0.088200	0.522100	0.043700
C141	C14	0.065600	0.521900	0.075000
H91	H9	0.072300	0.564000	0.097600
C151	C15	0.032500	0.465000	0.077900
H101	H10	0.016400	0.469000	0.101300
C161	C16	0.023100	0.401100	0.045600
C171	C17	0.046300	0.402900	0.011100
H111	H11	0.040000	0.362200	0.987800
C181	C18	0.078500	0.464200	0.010500
H121	H12	0.093900	0.465700	0.986500
Zn31	Zn3	0.141870	0.599330	0.050170
I51	I5	0.123120	0.747050	0.081220
I61	I6	0.177390	0.583400	0.982380
N71	N7	0.179800	0.531000	0.097700
C191	C19	0.186200	0.443700	0.093600
H131	H13	0.171300	0.413400	0.069400
C201	C20	0.213400	0.397000	0.123100
H141	H14	0.216700	0.335100	0.119700
C211	C21	0.236200	0.440700	0.158100
C221	C22	0.230400	0.531100	0.161600
H151	H15	0.246500	0.563600	0.184300
C231	C23	0.201200	0.573100	0.132100
H161	H16	0.195800	0.634100	0.136000
C241	C24	0.267300	0.392200	0.190200
N81	N8	0.271400	0.305400	0.184700
C251	C25	0.300100	0.267800	0.213400
N91	N9	0.325000	0.309600	0.244900
C261	C26	0.317300	0.394600	0.247800
N101	N10	0.288000	0.439700	0.222200
N111	N11	0.305900	0.986600	0.215000
C271	C27	0.329200	0.032500	0.243000
H171	H17	0.347800	0.002200	0.264600
C281	C28	0.329200	0.123600	0.244000
H181	H18	0.347200	0.154600	0.265800
C291	C29	0.302800	0.168700	0.212900
C301	C30	0.277200	0.120100	0.181700
H191	H19	0.258200	0.148700	0.159900
C311	C31	0.280000	0.029400	0.183500
H201	H20	0.263300	0.995500	0.161800
N121	N12	0.389400	0.533300	0.352200
C321	C32	0.358400	0.573200	0.326500
H211	H21	0.353100	0.634000	0.331200
C331	C33	0.333500	0.530300	0.293200
H221	H22	0.310900	0.560500	0.276200
C341	C34	0.341700	0.443200	0.285000
C351	C35	0.373400	0.400900	0.312300
H231	H23	0.379300	0.340200	0.308300
C361	C36	0.396300	0.447400	0.345000
H241	H24	0.418000	0.417700	0.363600
Zn41	Zn4	0.308350	0.849700	0.214460
I71	I7	0.241700	0.785940	0.181340
I81	I8	0.345330	0.804440	0.288020
N131	N13	0.349400	0.826700	0.170300
C371	C37	0.337400	0.781400	0.133700
H251	H25	0.309500	0.757900	0.128500
C381	C38	0.364100	0.767700	0.103300
H261	H26	0.354500	0.736800	0.077200
C391	C39	0.405100	0.799400	0.111100
C401	C40	0.417700	0.845000	0.149000
H271	H27	0.445500	0.868600	0.155100
C411	C41	0.388700	0.855600	0.178200
H281	H28	0.397600	0.884900	0.204800
C421	C42	0.433900	0.788200	0.078100
N141	N14	0.428000	0.718300	0.052600
C431	C43	0.456700	0.708900	0.025500
N151	N15	0.487700	0.766600	0.021200
C441	C44	0.489600	0.834600	0.048200
N161	N16	0.464800	0.848500	0.077800
N171	N17	0.444900	0.483700	0.943200
C451	C45	0.476200	0.541300	0.942300
H291	H29	0.495300	0.532100	0.922000
C461	C46	0.482200	0.613700	0.969400
H301	H30	0.505200	0.652900	0.967900
C471	C47	0.454400	0.628300	0.998600
C481	C48	0.422200	0.566800	0.001200
H311	H31	0.403200	0.573600	0.021900
C491	C49	0.418600	0.495800	0.973000
H321	H32	0.396700	0.453800	0.974800
Zn51	Zn5	0.430040	0.390950	0.895420
I91	I9	0.387650	0.268360	0.923630
I101	I10	0.495020	0.366810	0.857150
N181	N18	0.588200	0.022100	0.043700
C501	C50	0.565600	0.021900	0.075000
H331	H33	0.572300	0.064000	0.097600
C511	C51	0.532500	0.965000	0.077900
H341	H34	0.516400	0.969000	0.101300
C521	C52	0.523100	0.901100	0.045600
C531	C53	0.546300	0.902900	0.011100
H351	H35	0.540000	0.862200	0.987800
C541	C54	0.578500	0.964200	0.010500
H361	H36	0.593900	0.965700	0.986500
Zn61	Zn6	0.641870	0.099330	0.050170
I111	I11	0.623120	0.247050	0.081220
I121	I12	0.677390	0.083400	0.982380
N191	N19	0.679800	0.031000	0.097700
C551	C55	0.686200	0.943700	0.093600
H371	H37	0.671300	0.913400	0.069400
C561	C56	0.713400	0.897000	0.123100
H381	H38	0.716700	0.835100	0.119700
C571	C57	0.736200	0.940700	0.158100
C581	C58	0.730400	0.031100	0.161600
H391	H39	0.746500	0.063600	0.184300
C591	C59	0.701200	0.073100	0.132100
H401	H40	0.695800	0.134100	0.136000
C601	C60	0.767300	0.892200	0.190200
N201	N20	0.771400	0.805400	0.184700
C611	C61	0.800100	0.767800	0.213400
N211	N21	0.825000	0.809600	0.244900
C621	C62	0.817300	0.894600	0.247800
N221	N22	0.788000	0.939700	0.222200
N231	N23	0.805900	0.486600	0.215000
C631	C63	0.829200	0.532500	0.243000
H411	H41	0.847800	0.502200	0.264600
C641	C64	0.829200	0.623600	0.244000
H421	H42	0.847200	0.654600	0.265800
C651	C65	0.802800	0.668700	0.212900
C661	C66	0.777200	0.620100	0.181700
H431	H43	0.758200	0.648700	0.159900
C671	C67	0.780000	0.529400	0.183500
H441	H44	0.763300	0.495500	0.161800
N241	N24	0.889400	0.033300	0.352200
C681	C68	0.858400	0.073200	0.326500
H451	H45	0.853100	0.134000	0.331200
C691	C69	0.833500	0.030300	0.293200
H461	H46	0.810900	0.060500	0.276200
C701	C70	0.841700	0.943200	0.285000
C711	C71	0.873400	0.900900	0.312300
H471	H47	0.879300	0.840200	0.308300
C721	C72	0.896300	0.947400	0.345000
H481	H48	0.918000	0.917700	0.363600
Zn71	Zn7	0.808350	0.650300	0.714460
I131	I13	0.741700	0.714060	0.681340
I141	I14	0.845330	0.695560	0.788020
N251	N25	0.849400	0.673300	0.670300
C731	C73	0.837400	0.718600	0.633700
H491	H49	0.809500	0.742100	0.628500
C741	C74	0.864100	0.732300	0.603300
H501	H50	0.854500	0.763200	0.577200
C751	C75	0.905100	0.700600	0.611100
C761	C76	0.917700	0.655000	0.649000
H511	H51	0.945500	0.631400	0.655100
C771	C77	0.888700	0.644400	0.678200
H521	H52	0.897600	0.615100	0.704800
C781	C78	0.933900	0.711800	0.578100
N261	N26	0.928000	0.781700	0.552600
C791	C79	0.956700	0.791100	0.525500
N271	N27	0.987700	0.733400	0.521200
C801	C80	0.989600	0.665400	0.548200
N281	N28	0.964800	0.651500	0.577800
N291	N29	0.944900	0.016300	0.443200
C811	C81	0.976200	0.958700	0.442300
H531	H53	0.995300	0.967900	0.422000
C821	C82	0.982200	0.886300	0.469400
H541	H54	0.005200	0.847100	0.467900
C831	C83	0.954400	0.871700	0.498600
C841	C84	0.922200	0.933200	0.501200
H551	H55	0.903200	0.926400	0.521900
C851	C85	0.918600	0.004200	0.473000
H561	H56	0.896700	0.046200	0.474800
Zn81	Zn8	0.930040	0.109050	0.395420
I151	I15	0.887650	0.231640	0.423630
I161	I16	0.995020	0.133190	0.357150
N301	N30	0.088200	0.477900	0.543700
C861	C86	0.065600	0.478100	0.575000
H571	H57	0.072300	0.436000	0.597600
C871	C87	0.032500	0.535000	0.577900
H581	H58	0.016400	0.531000	0.601300
C881	C88	0.023100	0.598900	0.545600
C891	C89	0.046300	0.597100	0.511100
H591	H59	0.040000	0.637800	0.487800
C901	C90	0.078500	0.535800	0.510500
H601	H60	0.093900	0.534300	0.486500
Zn91	Zn9	0.141870	0.400670	0.550170
I171	I17	0.123120	0.252950	0.581220
I181	I18	0.177390	0.416600	0.482380
N311	N31	0.179800	0.469000	0.597700
C911	C91	0.186200	0.556300	0.593600
H611	H61	0.171300	0.586600	0.569400
C921	C92	0.213400	0.603000	0.623100
H621	H62	0.216700	0.664900	0.619700
C931	C93	0.236200	0.559300	0.658100
C941	C94	0.230400	0.468900	0.661600
H631	H63	0.246500	0.436400	0.684300
C951	C95	0.201200	0.426900	0.632100
H641	H64	0.195800	0.365900	0.636000
C961	C96	0.267300	0.607800	0.690200
N321	N32	0.271400	0.694600	0.684700
C971	C97	0.300100	0.732200	0.713400
N331	N33	0.325000	0.690400	0.744900
C981	C98	0.317300	0.605400	0.747800
N341	N34	0.288000	0.560300	0.722200
N351	N35	0.305900	0.013400	0.715000
C991	C99	0.329200	0.967500	0.743000
H651	H65	0.347800	0.997800	0.764600
C1001	C100	0.329200	0.876400	0.744000
H661	H66	0.347200	0.845400	0.765800
C1011	C101	0.302800	0.831300	0.712900
C1021	C102	0.277200	0.879900	0.681700
H671	H67	0.258200	0.851300	0.659900
C1031	C103	0.280000	0.970600	0.683500
H681	H68	0.263300	0.004500	0.661800
N361	N36	0.389400	0.466700	0.852200
C1041	C104	0.358400	0.426800	0.826500
H691	H69	0.353100	0.366000	0.831200
C1051	C105	0.333500	0.469700	0.793200
H701	H70	0.310900	0.439500	0.776200
C1061	C106	0.341700	0.556800	0.785000
C1071	C107	0.373400	0.599100	0.812300
H711	H71	0.379300	0.659800	0.808300
C1081	C108	0.396300	0.552600	0.845000
H721	H72	0.418000	0.582300	0.863600
Zn101	Zn10	0.308350	0.150300	0.714460
I191	I19	0.241700	0.214060	0.681340
I201	I20	0.345330	0.195560	0.788020
N371	N37	0.349400	0.173300	0.670300
C1091	C109	0.337400	0.218600	0.633700
H731	H73	0.309500	0.242100	0.628500
C1101	C110	0.364100	0.232300	0.603300
H741	H74	0.354500	0.263200	0.577200
C1111	C111	0.405100	0.200600	0.611100
C1121	C112	0.417700	0.155000	0.649000
H751	H75	0.445500	0.131400	0.655100
C1131	C113	0.388700	0.144400	0.678200
H761	H76	0.397600	0.115100	0.704800
C1141	C114	0.433900	0.211800	0.578100
N381	N38	0.428000	0.281700	0.552600
C1151	C115	0.456700	0.291100	0.525500
N391	N39	0.487700	0.233400	0.521200
C1161	C116	0.489600	0.165400	0.548200
N401	N40	0.464800	0.151500	0.577800
N411	N41	0.444900	0.516300	0.443200
C1171	C117	0.476200	0.458700	0.442300
H771	H77	0.495300	0.467900	0.422000
C1181	C118	0.482200	0.386300	0.469400
H781	H78	0.505200	0.347100	0.467900
C1191	C119	0.454400	0.371700	0.498600
C1201	C120	0.422200	0.433200	0.501200
H791	H79	0.403200	0.426400	0.521900
C1211	C121	0.418600	0.504200	0.473000
H801	H80	0.396700	0.546200	0.474800
Zn111	Zn11	0.430040	0.609050	0.395420
I211	I21	0.387650	0.731640	0.423630
I221	I22	0.495020	0.633190	0.357150
N421	N42	0.588200	0.977900	0.543700
C1221	C122	0.565600	0.978100	0.575000
H811	H81	0.572300	0.936000	0.597600
C1231	C123	0.532500	0.035000	0.577900
H821	H82	0.516400	0.031000	0.601300
C1241	C124	0.523100	0.098900	0.545600
C1251	C125	0.546300	0.097100	0.511100
H831	H83	0.540000	0.137800	0.487800
C1261	C126	0.578500	0.035800	0.510500
H841	H84	0.593900	0.034300	0.486500
Zn121	Zn12	0.641870	0.900670	0.550170
I231	I23	0.623120	0.752950	0.581220
I241	I24	0.677390	0.916600	0.482380
N431	N43	0.679800	0.969000	0.597700
C1271	C127	0.686200	0.056300	0.593600
H851	H85	0.671300	0.086600	0.569400
C1281	C128	0.713400	0.103000	0.623100
H861	H86	0.716700	0.164900	0.619700
C1291	C129	0.736200	0.059300	0.658100
C1301	C130	0.730400	0.968900	0.661600
H871	H87	0.746500	0.936400	0.684300
C1311	C131	0.701200	0.926900	0.632100
H881	H88	0.695800	0.865900	0.636000
C1321	C132	0.767300	0.107800	0.690200
N441	N44	0.771400	0.194600	0.684700
C1331	C133	0.800100	0.232200	0.713400
N451	N45	0.825000	0.190400	0.744900
C1341	C134	0.817300	0.105400	0.747800
N461	N46	0.788000	0.060300	0.722200
N471	N47	0.805900	0.513400	0.715000
C1351	C135	0.829200	0.467500	0.743000
H891	H89	0.847800	0.497800	0.764600
C1361	C136	0.829200	0.376400	0.744000
H901	H90	0.847200	0.345400	0.765800
C1371	C137	0.802800	0.331300	0.712900
C1381	C138	0.777200	0.379900	0.681700
H911	H91	0.758200	0.351300	0.659900
C1391	C139	0.780000	0.470600	0.683500
H921	H92	0.763300	0.504500	0.661800
N481	N48	0.889400	0.966700	0.852200
C1401	C140	0.858400	0.926800	0.826500
H931	H93	0.853100	0.866000	0.831200
C1411	C141	0.833500	0.969700	0.793200
H941	H94	0.810900	0.939500	0.776200
C1421	C142	0.841700	0.056800	0.785000
C1431	C143	0.873400	0.099100	0.812300
H951	H95	0.879300	0.159800	0.808300
C1441	C144	0.896300	0.052600	0.845000
H961	H96	0.918000	0.082300	0.863600
Zn131	Zn13	0.191650	0.349700	0.285540
I251	I25	0.258300	0.285940	0.318660
I261	I26	0.154670	0.304440	0.211980
N491	N49	0.150600	0.326700	0.329700
C1451	C145	0.162600	0.281400	0.366300
H971	H97	0.190500	0.257900	0.371500
C1461	C146	0.135900	0.267700	0.396700
H981	H98	0.145500	0.236800	0.422800
C1471	C147	0.094900	0.299400	0.388900
C1481	C148	0.082300	0.345000	0.351000
H991	H99	0.054500	0.368600	0.344900
C1491	C149	0.111300	0.355600	0.321800
H1001	H100	0.102400	0.384900	0.295200
C1501	C150	0.066100	0.288200	0.421900
N501	N50	0.072000	0.218300	0.447400
C1511	C151	0.043300	0.208900	0.474500
N511	N51	0.012300	0.266600	0.478800
C1521	C152	0.010400	0.334600	0.451800
N521	N52	0.035200	0.348500	0.422200
N531	N53	0.055100	0.983700	0.556800
C1531	C153	0.023800	0.041300	0.557700
H1011	H101	0.004700	0.032100	0.578000
C1541	C154	0.017800	0.113700	0.530600
H1021	H102	0.994800	0.152900	0.532100
C1551	C155	0.045600	0.128300	0.501400
C1561	C156	0.077800	0.066800	0.498800
H1031	H103	0.096800	0.073600	0.478100
C1571	C157	0.081400	0.995800	0.527000
H1041	H104	0.103300	0.953800	0.525200
Zn141	Zn14	0.069960	0.890950	0.604580
I271	I27	0.112350	0.768360	0.576370
I281	I28	0.004980	0.866810	0.642850
N541	N54	0.911800	0.522100	0.456300
C1581	C158	0.934400	0.521900	0.425000
H1051	H105	0.927700	0.564000	0.402400
C1591	C159	0.967500	0.465000	0.422100
H1061	H106	0.983600	0.469000	0.398700
C1601	C160	0.976900	0.401100	0.454400
C1611	C161	0.953700	0.402900	0.488900
H1071	H107	0.960000	0.362200	0.512200
C1621	C162	0.921500	0.464200	0.489500
H1081	H108	0.906100	0.465700	0.513500
Zn151	Zn15	0.858130	0.599330	0.449830
I291	I29	0.876880	0.747050	0.418780
I301	I30	0.822610	0.583400	0.517620
N551	N55	0.820200	0.531000	0.402300
C1631	C163	0.813800	0.443700	0.406400
H1091	H109	0.828700	0.413400	0.430600
C1641	C164	0.786600	0.397000	0.376900
H1101	H110	0.783300	0.335100	0.380300
C1651	C165	0.763800	0.440700	0.341900
C1661	C166	0.769600	0.531100	0.338400
H1111	H111	0.753500	0.563600	0.315700
C1671	C167	0.798800	0.573100	0.367900
H1121	H112	0.804200	0.634100	0.364000
C1681	C168	0.732700	0.392200	0.309800
N561	N56	0.728600	0.305400	0.315300
C1691	C169	0.699900	0.267800	0.286600
N571	N57	0.675000	0.309600	0.255100
C1701	C170	0.682700	0.394600	0.252200
N581	N58	0.712000	0.439700	0.277800
N591	N59	0.694100	0.986600	0.285000
C1711	C171	0.670800	0.032500	0.257000
H1131	H113	0.652200	0.002200	0.235400
C1721	C172	0.670800	0.123600	0.256000
H1141	H114	0.652800	0.154600	0.234200
C1731	C173	0.697200	0.168700	0.287100
C1741	C174	0.722800	0.120100	0.318300
H1151	H115	0.741800	0.148700	0.340100
C1751	C175	0.720000	0.029400	0.316500
H1161	H116	0.736700	0.995500	0.338200
N601	N60	0.610600	0.533300	0.147800
C1761	C176	0.641600	0.573200	0.173500
H1171	H117	0.646900	0.634000	0.168800
C1771	C177	0.666500	0.530300	0.206800
H1181	H118	0.689100	0.560500	0.223800
C1781	C178	0.658300	0.443200	0.215000
C1791	C179	0.626600	0.400900	0.187700
H1191	H119	0.620700	0.340200	0.191700
C1801	C180	0.603700	0.447400	0.155000
H1201	H120	0.582000	0.417700	0.136400
Zn161	Zn16	0.691650	0.849700	0.285540
I311	I31	0.758300	0.785940	0.318660
I321	I32	0.654670	0.804440	0.211980
N611	N61	0.650600	0.826700	0.329700
C1811	C181	0.662600	0.781400	0.366300
H1211	H121	0.690500	0.757900	0.371500
C1821	C182	0.635900	0.767700	0.396700
H1221	H122	0.645500	0.736800	0.422800
C1831	C183	0.594900	0.799400	0.388900
C1841	C184	0.582300	0.845000	0.351000
H1231	H123	0.554500	0.868600	0.344900
C1851	C185	0.611300	0.855600	0.321800
H1241	H124	0.602400	0.884900	0.295200
C1861	C186	0.566100	0.788200	0.421900
N621	N62	0.572000	0.718300	0.447400
C1871	C187	0.543300	0.708900	0.474500
N631	N63	0.512300	0.766600	0.478800
C1881	C188	0.510400	0.834600	0.451800
N641	N64	0.535200	0.848500	0.422200
N651	N65	0.555100	0.483700	0.556800
C1891	C189	0.523800	0.541300	0.557700
H1251	H125	0.504700	0.532100	0.578000
C1901	C190	0.517800	0.613700	0.530600
H1261	H126	0.494800	0.652900	0.532100
C1911	C191	0.545600	0.628300	0.501400
C1921	C192	0.577800	0.566800	0.498800
H1271	H127	0.596800	0.573600	0.478100
C1931	C193	0.581400	0.495800	0.527000
H1281	H128	0.603300	0.453800	0.525200
Zn171	Zn17	0.569960	0.390950	0.604580
I331	I33	0.612350	0.268360	0.576370
I341	I34	0.504980	0.366810	0.642850
N661	N66	0.411800	0.022100	0.456300
C1941	C194	0.434400	0.021900	0.425000
H1291	H129	0.427700	0.064000	0.402400
C1951	C195	0.467500	0.965000	0.422100
H1301	H130	0.483600	0.969000	0.398700
C1961	C196	0.476900	0.901100	0.454400
C1971	C197	0.453700	0.902900	0.488900
H1311	H131	0.460000	0.862200	0.512200
C1981	C198	0.421500	0.964200	0.489500
H1321	H132	0.406100	0.965700	0.513500
Zn181	Zn18	0.358130	0.099330	0.449830
I351	I35	0.376880	0.247050	0.418780
I361	I36	0.322610	0.083400	0.517620
N671	N67	0.320200	0.031000	0.402300
C1991	C199	0.313800	0.943700	0.406400
H1331	H133	0.328700	0.913400	0.430600
C2001	C200	0.286600	0.897000	0.376900
H1341	H134	0.283300	0.835100	0.380300
C2011	C201	0.263800	0.940700	0.341900
C2021	C202	0.269600	0.031100	0.338400
H1351	H135	0.253500	0.063600	0.315700
C2031	C203	0.298800	0.073100	0.367900
H1361	H136	0.304200	0.134100	0.364000
C2041	C204	0.232700	0.892200	0.309800
N681	N68	0.228600	0.805400	0.315300
C2051	C205	0.199900	0.767800	0.286600
N691	N69	0.175000	0.809600	0.255100
C2061	C206	0.182700	0.894600	0.252200
N701	N70	0.212000	0.939700	0.277800
N711	N71	0.194100	0.486600	0.285000
C2071	C207	0.170800	0.532500	0.257000
H1371	H137	0.152200	0.502200	0.235400
C2081	C208	0.170800	0.623600	0.256000
H1381	H138	0.152800	0.654600	0.234200
C2091	C209	0.197200	0.668700	0.287100
C2101	C210	0.222800	0.620100	0.318300
H1391	H139	0.241800	0.648700	0.340100
C2111	C211	0.220000	0.529400	0.316500
H1401	H140	0.236700	0.495500	0.338200
N721	N72	0.110600	0.033300	0.147800
C2121	C212	0.141600	0.073200	0.173500
H1411	H141	0.146900	0.134000	0.168800
C2131	C213	0.166500	0.030300	0.206800
H1421	H142	0.189100	0.060500	0.223800
C2141	C214	0.158300	0.943200	0.215000
C2151	C215	0.126600	0.900900	0.187700
H1431	H143	0.120700	0.840200	0.191700
C2161	C216	0.103700	0.947400	0.155000
H1441	H144	0.082000	0.917700	0.136400
Zn191	Zn19	0.191650	0.650300	0.785540
I371	I37	0.258300	0.714060	0.818660
I381	I38	0.154670	0.695560	0.711980
N731	N73	0.150600	0.673300	0.829700
C2171	C217	0.162600	0.718600	0.866300
H1451	H145	0.190500	0.742100	0.871500
C2181	C218	0.135900	0.732300	0.896700
H1461	H146	0.145500	0.763200	0.922800
C2191	C219	0.094900	0.700600	0.888900
C2201	C220	0.082300	0.655000	0.851000
H1471	H147	0.054500	0.631400	0.844900
C2211	C221	0.111300	0.644400	0.821800
H1481	H148	0.102400	0.615100	0.795200
C2221	C222	0.066100	0.711800	0.921900
N741	N74	0.072000	0.781700	0.947400
C2231	C223	0.043300	0.791100	0.974500
N751	N75	0.012300	0.733400	0.978800
C2241	C224	0.010400	0.665400	0.951800
N761	N76	0.035200	0.651500	0.922200
N771	N77	0.055100	0.016300	0.056800
C2251	C225	0.023800	0.958700	0.057700
H1491	H149	0.004700	0.967900	0.078000
C2261	C226	0.017800	0.886300	0.030600
H1501	H150	0.994800	0.847100	0.032100
C2271	C227	0.045600	0.871700	0.001400
C2281	C228	0.077800	0.933200	0.998800
H1511	H151	0.096800	0.926400	0.978100
C2291	C229	0.081400	0.004200	0.027000
H1521	H152	0.103300	0.046200	0.025200
Zn201	Zn20	0.069960	0.109050	0.104580
I391	I39	0.112350	0.231640	0.076370
I401	I40	0.004980	0.133190	0.142850
N781	N78	0.911800	0.477900	0.956300
C2301	C230	0.934400	0.478100	0.925000
H1531	H153	0.927700	0.436000	0.902400
C2311	C231	0.967500	0.535000	0.922100
H1541	H154	0.983600	0.531000	0.898700
C2321	C232	0.976900	0.598900	0.954400
C2331	C233	0.953700	0.597100	0.988900
H1551	H155	0.960000	0.637800	0.012200
C2341	C234	0.921500	0.535800	0.989500
H1561	H156	0.906100	0.534300	0.013500
Zn211	Zn21	0.858130	0.400670	0.949830
I411	I41	0.876880	0.252950	0.918780
I421	I42	0.822610	0.416600	0.017620
N791	N79	0.820200	0.469000	0.902300
C2351	C235	0.813800	0.556300	0.906400
H1571	H157	0.828700	0.586600	0.930600
C2361	C236	0.786600	0.603000	0.876900
H1581	H158	0.783300	0.664900	0.880300
C2371	C237	0.763800	0.559300	0.841900
C2381	C238	0.769600	0.468900	0.838400
H1591	H159	0.753500	0.436400	0.815700
C2391	C239	0.798800	0.426900	0.867900
H1601	H160	0.804200	0.365900	0.864000
C2401	C240	0.732700	0.607800	0.809800
N801	N80	0.728600	0.694600	0.815300
C2411	C241	0.699900	0.732200	0.786600
N811	N81	0.675000	0.690400	0.755100
C2421	C242	0.682700	0.605400	0.752200
N821	N82	0.712000	0.560300	0.777800
N831	N83	0.694100	0.013400	0.785000
C2431	C243	0.670800	0.967500	0.757000
H1611	H161	0.652200	0.997800	0.735400
C2441	C244	0.670800	0.876400	0.756000
H1621	H162	0.652800	0.845400	0.734200
C2451	C245	0.697200	0.831300	0.787100
C2461	C246	0.722800	0.879900	0.818300
H1631	H163	0.741800	0.851300	0.840100
C2471	C247	0.720000	0.970600	0.816500
H1641	H164	0.736700	0.004500	0.838200
N841	N84	0.610600	0.466700	0.647800
C2481	C248	0.641600	0.426800	0.673500
H1651	H165	0.646900	0.366000	0.668800
C2491	C249	0.666500	0.469700	0.706800
H1661	H166	0.689100	0.439500	0.723800
C2501	C250	0.658300	0.556800	0.715000
C2511	C251	0.626600	0.599100	0.687700
H1671	H167	0.620700	0.659800	0.691700
C2521	C252	0.603700	0.552600	0.655000
H1681	H168	0.582000	0.582300	0.636400
Zn221	Zn22	0.691650	0.150300	0.785540
I431	I43	0.758300	0.214060	0.818660
I441	I44	0.654670	0.195560	0.711980
N851	N85	0.650600	0.173300	0.829700
C2531	C253	0.662600	0.218600	0.866300
H1691	H169	0.690500	0.242100	0.871500
C2541	C254	0.635900	0.232300	0.896700
H1701	H170	0.645500	0.263200	0.922800
C2551	C255	0.594900	0.200600	0.888900
C2561	C256	0.582300	0.155000	0.851000
H1711	H171	0.554500	0.131400	0.844900
C2571	C257	0.611300	0.144400	0.821800
H1721	H172	0.602400	0.115100	0.795200
C2581	C258	0.566100	0.211800	0.921900
N861	N86	0.572000	0.281700	0.947400
C2591	C259	0.543300	0.291100	0.974500
N871	N87	0.512300	0.233400	0.978800
C2601	C260	0.510400	0.165400	0.951800
N881	N88	0.535200	0.151500	0.922200
N891	N89	0.555100	0.516300	0.056800
C2611	C261	0.523800	0.458700	0.057700
H1731	H173	0.504700	0.467900	0.078000
C2621	C262	0.517800	0.386300	0.030600
H1741	H174	0.494800	0.347100	0.032100
C2631	C263	0.545600	0.371700	0.001400
C2641	C264	0.577800	0.433200	0.998800
H1751	H175	0.596800	0.426400	0.978100
C2651	C265	0.581400	0.504200	0.027000
H1761	H176	0.603300	0.546200	0.025200
Zn231	Zn23	0.569960	0.609050	0.104580
I451	I45	0.612350	0.731640	0.076370
I461	I46	0.504980	0.633190	0.142850
N901	N90	0.411800	0.977900	0.956300
C2661	C266	0.434400	0.978100	0.925000
H1771	H177	0.427700	0.936000	0.902400
C2671	C267	0.467500	0.035000	0.922100
H1781	H178	0.483600	0.031000	0.898700
C2681	C268	0.476900	0.098900	0.954400
C2691	C269	0.453700	0.097100	0.988900
H1791	H179	0.460000	0.137800	0.012200
C2701	C270	0.421500	0.035800	0.989500
H1801	H180	0.406100	0.034300	0.013500
Zn241	Zn24	0.358130	0.900670	0.949830
I471	I47	0.376880	0.752950	0.918780
I481	I48	0.322610	0.916600	0.017620
N911	N91	0.320200	0.969000	0.902300
C2711	C271	0.313800	0.056300	0.906400
H1811	H181	0.328700	0.086600	0.930600
C2721	C272	0.286600	0.103000	0.876900
H1821	H182	0.283300	0.164900	0.880300
C2731	C273	0.263800	0.059300	0.841900
C2741	C274	0.269600	0.968900	0.838400
H1831	H183	0.253500	0.936400	0.815700
C2751	C275	0.298800	0.926900	0.867900
H1841	H184	0.304200	0.865900	0.864000
C2761	C276	0.232700	0.107800	0.809800
N921	N92	0.228600	0.194600	0.815300
C2771	C277	0.199900	0.232200	0.786600
N931	N93	0.175000	0.190400	0.755100
C2781	C278	0.182700	0.105400	0.752200
N941	N94	0.212000	0.060300	0.777800
N951	N95	0.194100	0.513400	0.785000
C2791	C279	0.170800	0.467500	0.757000
H1851	H185	0.152200	0.497800	0.735400
C2801	C280	0.170800	0.376400	0.756000
H1861	H186	0.152800	0.345400	0.734200
C2811	C281	0.197200	0.331300	0.787100
C2821	C282	0.222800	0.379900	0.818300
H1871	H187	0.241800	0.351300	0.840100
C2831	C283	0.220000	0.470600	0.816500
H1881	H188	0.236700	0.504500	0.838200
N961	N96	0.110600	0.966700	0.647800
C2841	C284	0.141600	0.926800	0.673500
H1891	H189	0.146900	0.866000	0.668800
C2851	C285	0.166500	0.969700	0.706800
H1901	H190	0.189100	0.939500	0.723800
C2861	C286	0.158300	0.056800	0.715000
C2871	C287	0.126600	0.099100	0.687700
H1911	H191	0.120700	0.159800	0.691700
C2881	C288	0.103700	0.052600	0.655000
H1921	H192	0.082000	0.082300	0.636400
