data_VUCCON_clean_PM
_symmetry_space_group_name_H-M	'P1'
_cell_length_a	10.210500
_cell_length_b	10.210500
_cell_length_c	31.222300
_cell_angle_alpha	90.000000
_cell_angle_beta	90.000000
_cell_angle_gamma	120.000000
_symmetry_Int_Tables_number 1

loop_
_symmetry_equiv_pos_as_xyz
'x,y,z'

loop_
_atom_site_label
_atom_site_type_symbol
_atom_site_fract_x
_atom_site_fract_y
_atom_site_fract_z
O11	O1	0.282240	0.192550	0.021560
O21	O2	0.166270	0.010840	0.069130
O31	O3	0.254720	0.250390	0.130810
O41	O4	0.495720	0.355420	0.148370
C11	C1	0.281580	0.132150	0.056310
C21	C2	0.417350	0.206460	0.085140
H11	H1	0.446000	0.135000	0.095800
H21	H2	0.500000	0.285000	0.070300
C31	C3	0.386160	0.274590	0.124420
O51	O5	0.948910	0.525880	0.354890
O61	O6	0.832940	0.344170	0.402460
O71	O7	0.921390	0.583720	0.464140
O81	O8	0.162390	0.688750	0.481700
C41	C4	0.948250	0.465480	0.389640
C51	C5	0.084020	0.539790	0.418470
H31	H3	0.112670	0.468330	0.429130
H41	H4	0.166670	0.618330	0.403630
C61	C6	0.052830	0.607920	0.457750
O91	O9	0.615570	0.859220	0.688230
O101	O10	0.499600	0.677510	0.735800
O111	O11	0.588050	0.917060	0.797480
O121	O12	0.829050	0.022090	0.815040
C71	C7	0.614910	0.798820	0.722980
C81	C8	0.750680	0.873130	0.751810
H51	H5	0.779330	0.801670	0.762470
H61	H6	0.833330	0.951670	0.736970
C91	C9	0.719490	0.941260	0.791090
O131	O13	0.807450	0.089690	0.021560
O141	O14	0.989160	0.155430	0.069130
O151	O15	0.749610	0.004330	0.130810
O161	O16	0.644580	0.140300	0.148370
C101	C10	0.867850	0.149430	0.056310
C111	C11	0.793540	0.210890	0.085140
H71	H7	0.865000	0.311000	0.095800
H81	H8	0.715000	0.215000	0.070300
C121	C12	0.725410	0.111570	0.124420
O171	O17	0.474120	0.423020	0.354890
O181	O18	0.655830	0.488760	0.402460
O191	O19	0.416280	0.337660	0.464140
O201	O20	0.311250	0.473630	0.481700
C131	C13	0.534520	0.482760	0.389640
C141	C14	0.460210	0.544220	0.418470
H91	H9	0.531670	0.644330	0.429130
H101	H10	0.381670	0.548330	0.403630
C151	C15	0.392080	0.444900	0.457750
O211	O21	0.140780	0.756360	0.688230
O221	O22	0.322490	0.822100	0.735800
O231	O23	0.082940	0.671000	0.797480
O241	O24	0.977910	0.806970	0.815040
C161	C16	0.201180	0.816100	0.722980
C171	C17	0.126870	0.877560	0.751810
H111	H11	0.198330	0.977670	0.762470
H121	H12	0.048330	0.881670	0.736970
C181	C18	0.058740	0.778240	0.791090
O251	O25	0.910310	0.717760	0.021560
O261	O26	0.844570	0.833730	0.069130
O271	O27	0.995670	0.745280	0.130810
O281	O28	0.859700	0.504280	0.148370
C191	C19	0.850570	0.718420	0.056310
C201	C20	0.789110	0.582650	0.085140
H131	H13	0.689000	0.554000	0.095800
H141	H14	0.785000	0.500000	0.070300
C211	C21	0.888430	0.613840	0.124420
O291	O29	0.576980	0.051090	0.354890
O301	O30	0.511240	0.167060	0.402460
O311	O31	0.662340	0.078610	0.464140
O321	O32	0.526370	0.837610	0.481700
C221	C22	0.517240	0.051750	0.389640
C231	C23	0.455780	0.915980	0.418470
H151	H15	0.355670	0.887330	0.429130
H161	H16	0.451670	0.833330	0.403630
C241	C24	0.555100	0.947170	0.457750
O331	O33	0.243640	0.384430	0.688230
O341	O34	0.177900	0.500400	0.735800
O351	O35	0.329000	0.411950	0.797480
O361	O36	0.193030	0.170950	0.815040
C251	C25	0.183900	0.385090	0.722980
C261	C26	0.122440	0.249320	0.751810
H171	H17	0.022330	0.220670	0.762470
H181	H18	0.118330	0.166670	0.736970
C271	C27	0.221760	0.280510	0.791090
O371	O37	0.717760	0.807450	0.978440
O381	O38	0.833730	0.989160	0.930870
O391	O39	0.745280	0.749610	0.869190
O401	O40	0.504280	0.644580	0.851630
C281	C28	0.718420	0.867850	0.943690
C291	C29	0.582650	0.793540	0.914860
H191	H19	0.554000	0.865000	0.904200
H201	H20	0.500000	0.715000	0.929700
C301	C30	0.613840	0.725410	0.875580
O411	O41	0.384430	0.140780	0.311770
O421	O42	0.500400	0.322490	0.264200
O431	O43	0.411950	0.082940	0.202520
O441	O44	0.170950	0.977910	0.184960
C311	C31	0.385090	0.201180	0.277020
C321	C32	0.249320	0.126870	0.248190
H211	H21	0.220670	0.198330	0.237530
H221	H22	0.166670	0.048330	0.263030
C331	C33	0.280510	0.058740	0.208910
O451	O45	0.051090	0.474120	0.645110
O461	O46	0.167060	0.655830	0.597540
O471	O47	0.078610	0.416280	0.535860
O481	O48	0.837610	0.311250	0.518300
C341	C34	0.051750	0.534520	0.610360
C351	C35	0.915980	0.460210	0.581530
H231	H23	0.887330	0.531670	0.570870
H241	H24	0.833330	0.381670	0.596370
C361	C36	0.947170	0.392080	0.542250
O491	O49	0.192550	0.910310	0.978440
O501	O50	0.010840	0.844570	0.930870
O511	O51	0.250390	0.995670	0.869190
O521	O52	0.355420	0.859700	0.851630
C371	C37	0.132150	0.850570	0.943690
C381	C38	0.206460	0.789110	0.914860
H251	H25	0.135000	0.689000	0.904200
H261	H26	0.285000	0.785000	0.929700
C391	C39	0.274590	0.888430	0.875580
O531	O53	0.859220	0.243640	0.311770
O541	O54	0.677510	0.177900	0.264200
O551	O55	0.917060	0.329000	0.202520
O561	O56	0.022090	0.193030	0.184960
C401	C40	0.798820	0.183900	0.277020
C411	C41	0.873130	0.122440	0.248190
H271	H27	0.801670	0.022330	0.237530
H281	H28	0.951670	0.118330	0.263030
C421	C42	0.941260	0.221760	0.208910
O571	O57	0.525880	0.576980	0.645110
O581	O58	0.344170	0.511240	0.597540
O591	O59	0.583720	0.662340	0.535860
O601	O60	0.688750	0.526370	0.518300
C431	C43	0.465480	0.517240	0.610360
C441	C44	0.539790	0.455780	0.581530
H291	H29	0.468330	0.355670	0.570870
H301	H30	0.618330	0.451670	0.596370
C451	C45	0.607920	0.555100	0.542250
O611	O61	0.089690	0.282240	0.978440
O621	O62	0.155430	0.166270	0.930870
O631	O63	0.004330	0.254720	0.869190
O641	O64	0.140300	0.495720	0.851630
C461	C46	0.149430	0.281580	0.943690
C471	C47	0.210890	0.417350	0.914860
H311	H31	0.311000	0.446000	0.904200
H321	H32	0.215000	0.500000	0.929700
C481	C48	0.111570	0.386160	0.875580
O651	O65	0.756360	0.615570	0.311770
O661	O66	0.822100	0.499600	0.264200
O671	O67	0.671000	0.588050	0.202520
O681	O68	0.806970	0.829050	0.184960
C491	C49	0.816100	0.614910	0.277020
C501	C50	0.877560	0.750680	0.248190
H331	H33	0.977670	0.779330	0.237530
H341	H34	0.881670	0.833330	0.263030
C511	C51	0.778240	0.719490	0.208910
O691	O69	0.423020	0.948910	0.645110
O701	O70	0.488760	0.832940	0.597540
O711	O71	0.337660	0.921390	0.535860
O721	O72	0.473630	0.162390	0.518300
C521	C52	0.482760	0.948250	0.610360
C531	C53	0.544220	0.084020	0.581530
H351	H35	0.644330	0.112670	0.570870
H361	H36	0.548330	0.166670	0.596370
C541	C54	0.444900	0.052830	0.542250
La11	La1	0.000000	0.000000	0.000000
La21	La2	0.666670	0.333330	0.333330
La31	La3	0.333330	0.666670	0.666670
La41	La4	0.000000	0.000000	0.131700
La51	La5	0.666670	0.333330	0.465040
La61	La6	0.333330	0.666670	0.798370
La71	La7	0.000000	0.000000	0.868300
La81	La8	0.666670	0.333330	0.201630
La91	La9	0.333330	0.666670	0.534960
