data_VUCCUT_clean_PM
_symmetry_space_group_name_H-M	'P1'
_cell_length_a	10.202400
_cell_length_b	10.202400
_cell_length_c	31.081800
_cell_angle_alpha	90.000000
_cell_angle_beta	90.000000
_cell_angle_gamma	120.000000
_symmetry_Int_Tables_number 1

loop_
_symmetry_equiv_pos_as_xyz
'x,y,z'

loop_
_atom_site_label
_atom_site_type_symbol
_atom_site_fract_x
_atom_site_fract_y
_atom_site_fract_z
O11	O1	0.387200	0.242200	0.311900
O21	O2	0.502310	0.177400	0.263800
C11	C1	0.386700	0.182600	0.276890
C21	C2	0.250200	0.121300	0.248250
O31	O3	0.411620	0.328200	0.202230
O41	O4	0.496600	0.142100	0.148480
H11	H1	0.165900	0.115700	0.264200
H21	H2	0.222400	0.019600	0.239200
C31	C3	0.280400	0.220200	0.208850
O51	O5	0.053870	0.575530	0.645230
O61	O6	0.168980	0.510730	0.597130
C41	C4	0.053370	0.515930	0.610220
C51	C5	0.916870	0.454630	0.581580
O71	O7	0.078290	0.661530	0.535560
O81	O8	0.163270	0.475430	0.481810
H31	H3	0.832570	0.449030	0.597530
H41	H4	0.889070	0.352930	0.572530
C61	C6	0.947070	0.553530	0.542180
O91	O9	0.720530	0.908870	0.978570
O101	O10	0.835640	0.844070	0.930470
C71	C7	0.720030	0.849270	0.943560
C81	C8	0.583530	0.787970	0.914920
O111	O11	0.744950	0.994870	0.868900
O121	O12	0.829930	0.808770	0.815150
H51	H5	0.499230	0.782370	0.930870
H61	H6	0.555730	0.686270	0.905870
C91	C9	0.613730	0.886870	0.875520
O131	O13	0.757800	0.145000	0.311900
O141	O14	0.822600	0.324910	0.263800
C101	C10	0.817400	0.204100	0.276890
C111	C11	0.878700	0.128900	0.248250
O151	O15	0.671800	0.083420	0.202230
O161	O16	0.857900	0.354500	0.148480
H71	H7	0.884300	0.050200	0.264200
H81	H8	0.980400	0.202800	0.239200
C121	C12	0.779800	0.060200	0.208850
O171	O17	0.424470	0.478330	0.645230
O181	O18	0.489270	0.658240	0.597130
C131	C13	0.484070	0.537430	0.610220
C141	C14	0.545370	0.462230	0.581580
O191	O19	0.338470	0.416750	0.535560
O201	O20	0.524570	0.687830	0.481810
H91	H9	0.550970	0.383530	0.597530
H101	H10	0.647070	0.536130	0.572530
C151	C15	0.446470	0.393530	0.542180
O211	O21	0.091130	0.811670	0.978570
O221	O22	0.155930	0.991580	0.930470
C161	C16	0.150730	0.870770	0.943560
C171	C17	0.212030	0.795570	0.914920
O231	O23	0.005130	0.750090	0.868900
O241	O24	0.191230	0.021170	0.815150
H111	H11	0.217630	0.716870	0.930870
H121	H12	0.313730	0.869470	0.905870
C181	C18	0.113130	0.726870	0.875520
O251	O25	0.855000	0.612800	0.311900
O261	O26	0.675090	0.497690	0.263800
C191	C19	0.795900	0.613300	0.276890
C201	C20	0.871100	0.749800	0.248250
O271	O27	0.916580	0.588380	0.202230
O281	O28	0.645500	0.503400	0.148480
H131	H13	0.949800	0.834100	0.264200
H141	H14	0.797200	0.777600	0.239200
C211	C21	0.939800	0.719600	0.208850
O291	O29	0.521670	0.946130	0.645230
O301	O30	0.341760	0.831020	0.597130
C221	C22	0.462570	0.946630	0.610220
C231	C23	0.537770	0.083130	0.581580
O311	O31	0.583250	0.921710	0.535560
O321	O32	0.312170	0.836730	0.481810
H151	H15	0.616470	0.167430	0.597530
H161	H16	0.463870	0.110930	0.572530
C241	C24	0.606470	0.052930	0.542180
O331	O33	0.188330	0.279470	0.978570
O341	O34	0.008420	0.164360	0.930470
C251	C25	0.129230	0.279970	0.943560
C261	C26	0.204430	0.416470	0.914920
O351	O35	0.249910	0.255050	0.868900
O361	O36	0.978830	0.170070	0.815150
H171	H17	0.283130	0.500770	0.930870
H181	H18	0.130530	0.444270	0.905870
C271	C27	0.273130	0.386270	0.875520
O371	O37	0.612800	0.757800	0.688100
O381	O38	0.497690	0.822600	0.736200
C281	C28	0.613300	0.817400	0.723110
C291	C29	0.749800	0.878700	0.751750
O391	O39	0.588380	0.671800	0.797770
O401	O40	0.503400	0.857900	0.851520
H191	H19	0.834100	0.884300	0.735800
H201	H20	0.777600	0.980400	0.760800
C301	C30	0.719600	0.779800	0.791150
O411	O41	0.279470	0.091130	0.021430
O421	O42	0.164360	0.155930	0.069530
C311	C31	0.279970	0.150730	0.056440
C321	C32	0.416470	0.212030	0.085080
O431	O43	0.255050	0.005130	0.131100
O441	O44	0.170070	0.191230	0.184850
H211	H21	0.500770	0.217630	0.069130
H221	H22	0.444270	0.313730	0.094130
C331	C33	0.386270	0.113130	0.124480
O451	O45	0.946130	0.424470	0.354770
O461	O46	0.831020	0.489270	0.402870
C341	C34	0.946630	0.484070	0.389780
C351	C35	0.083130	0.545370	0.418420
O471	O47	0.921710	0.338470	0.464440
O481	O48	0.836730	0.524570	0.518190
H231	H23	0.167430	0.550970	0.402470
H241	H24	0.110930	0.647070	0.427470
C361	C36	0.052930	0.446470	0.457820
O491	O49	0.242200	0.855000	0.688100
O501	O50	0.177400	0.675090	0.736200
C371	C37	0.182600	0.795900	0.723110
C381	C38	0.121300	0.871100	0.751750
O511	O51	0.328200	0.916580	0.797770
O521	O52	0.142100	0.645500	0.851520
H251	H25	0.115700	0.949800	0.735800
H261	H26	0.019600	0.797200	0.760800
C391	C39	0.220200	0.939800	0.791150
O531	O53	0.908870	0.188330	0.021430
O541	O54	0.844070	0.008420	0.069530
C401	C40	0.849270	0.129230	0.056440
C411	C41	0.787970	0.204430	0.085080
O551	O55	0.994870	0.249910	0.131100
O561	O56	0.808770	0.978830	0.184850
H271	H27	0.782370	0.283130	0.069130
H281	H28	0.686270	0.130530	0.094130
C421	C42	0.886870	0.273130	0.124480
O571	O57	0.575530	0.521670	0.354770
O581	O58	0.510730	0.341760	0.402870
C431	C43	0.515930	0.462570	0.389780
C441	C44	0.454630	0.537770	0.418420
O591	O59	0.661530	0.583250	0.464440
O601	O60	0.475430	0.312170	0.518190
H291	H29	0.449030	0.616470	0.402470
H301	H30	0.352930	0.463870	0.427470
C451	C45	0.553530	0.606470	0.457820
O611	O61	0.145000	0.387200	0.688100
O621	O62	0.324910	0.502310	0.736200
C461	C46	0.204100	0.386700	0.723110
C471	C47	0.128900	0.250200	0.751750
O631	O63	0.083420	0.411620	0.797770
O641	O64	0.354500	0.496600	0.851520
H311	H31	0.050200	0.165900	0.735800
H321	H32	0.202800	0.222400	0.760800
C481	C48	0.060200	0.280400	0.791150
O651	O65	0.811670	0.720530	0.021430
O661	O66	0.991580	0.835640	0.069530
C491	C49	0.870770	0.720030	0.056440
C501	C50	0.795570	0.583530	0.085080
O671	O67	0.750090	0.744950	0.131100
O681	O68	0.021170	0.829930	0.184850
H331	H33	0.716870	0.499230	0.069130
H341	H34	0.869470	0.555730	0.094130
C511	C51	0.726870	0.613730	0.124480
O691	O69	0.478330	0.053870	0.354770
O701	O70	0.658240	0.168980	0.402870
C521	C52	0.537430	0.053370	0.389780
C531	C53	0.462230	0.916870	0.418420
O711	O71	0.416750	0.078290	0.464440
O721	O72	0.687830	0.163270	0.518190
H351	H35	0.383530	0.832570	0.402470
H361	H36	0.536130	0.889070	0.427470
C541	C54	0.393530	0.947070	0.457820
Ce11	Ce1	0.666670	0.333330	0.333330
Ce21	Ce2	0.333330	0.666670	0.666670
Ce31	Ce3	0.000000	0.000000	0.000000
Ce41	Ce4	0.666670	0.333330	0.201430
Ce51	Ce5	0.333330	0.666670	0.534760
Ce61	Ce6	0.000000	0.000000	0.868100
Ce71	Ce7	0.333330	0.666670	0.798570
Ce81	Ce8	0.000000	0.000000	0.131900
Ce91	Ce9	0.666670	0.333330	0.465240
