data_VUCDEE_clean_PM
_symmetry_space_group_name_H-M	'P1'
_cell_length_a	10.182100
_cell_length_b	10.182100
_cell_length_c	30.921600
_cell_angle_alpha	90.000000
_cell_angle_beta	90.000000
_cell_angle_gamma	120.000000
_symmetry_Int_Tables_number 1

loop_
_symmetry_equiv_pos_as_xyz
'x,y,z'

loop_
_atom_site_label
_atom_site_type_symbol
_atom_site_fract_x
_atom_site_fract_y
_atom_site_fract_z
O11	O1	0.277810	0.186590	0.021330
O21	O2	0.162680	0.006560	0.069900
O31	O3	0.254440	0.248430	0.131440
O41	O4	0.497010	0.354110	0.148690
C11	C1	0.278280	0.127370	0.056580
C21	C2	0.415940	0.202720	0.085180
H11	H1	0.500300	0.281300	0.069000
H21	H2	0.443600	0.128600	0.094200
C31	C3	0.386060	0.272140	0.124800
O51	O5	0.944480	0.519920	0.354660
O61	O6	0.829350	0.339890	0.403230
O71	O7	0.921110	0.581760	0.464770
O81	O8	0.163680	0.687440	0.482020
C41	C4	0.944950	0.460700	0.389910
C51	C5	0.082610	0.536050	0.418510
H31	H3	0.166970	0.614630	0.402330
H41	H4	0.110270	0.461930	0.427530
C61	C6	0.052730	0.605470	0.458130
O91	O9	0.611140	0.853260	0.688000
O101	O10	0.496010	0.673230	0.736570
O111	O11	0.587770	0.915100	0.798110
O121	O12	0.830340	0.020780	0.815360
C71	C7	0.611610	0.794040	0.723250
C81	C8	0.749270	0.869390	0.751850
H51	H5	0.833630	0.947970	0.735670
H61	H6	0.776930	0.795270	0.760870
C91	C9	0.719390	0.938810	0.791470
O131	O13	0.813410	0.091220	0.021330
O141	O14	0.993440	0.156120	0.069900
O151	O15	0.751570	0.006010	0.131440
O161	O16	0.645890	0.142900	0.148690
C101	C10	0.872630	0.150910	0.056580
C111	C11	0.797280	0.213220	0.085180
H71	H7	0.718700	0.219000	0.069000
H81	H8	0.871400	0.315000	0.094200
C121	C12	0.727860	0.113920	0.124800
O171	O17	0.480080	0.424550	0.354660
O181	O18	0.660110	0.489450	0.403230
O191	O19	0.418240	0.339340	0.464770
O201	O20	0.312560	0.476230	0.482020
C131	C13	0.539300	0.484240	0.389910
C141	C14	0.463950	0.546550	0.418510
H91	H9	0.385370	0.552330	0.402330
H101	H10	0.538070	0.648330	0.427530
C151	C15	0.394530	0.447250	0.458130
O211	O21	0.146740	0.757890	0.688000
O221	O22	0.326770	0.822790	0.736570
O231	O23	0.084900	0.672680	0.798110
O241	O24	0.979220	0.809570	0.815360
C161	C16	0.205960	0.817580	0.723250
C171	C17	0.130610	0.879890	0.751850
H111	H11	0.052030	0.885670	0.735670
H121	H12	0.204730	0.981670	0.760870
C181	C18	0.061190	0.780590	0.791470
O251	O25	0.908780	0.722190	0.021330
O261	O26	0.843880	0.837320	0.069900
O271	O27	0.993990	0.745560	0.131440
O281	O28	0.857100	0.502990	0.148690
C191	C19	0.849090	0.721720	0.056580
C201	C20	0.786780	0.584060	0.085180
H131	H13	0.781000	0.499700	0.069000
H141	H14	0.685000	0.556400	0.094200
C211	C21	0.886080	0.613940	0.124800
O291	O29	0.575450	0.055520	0.354660
O301	O30	0.510550	0.170650	0.403230
O311	O31	0.660660	0.078890	0.464770
O321	O32	0.523770	0.836320	0.482020
C221	C22	0.515760	0.055050	0.389910
C231	C23	0.453450	0.917390	0.418510
H151	H15	0.447670	0.833030	0.402330
H161	H16	0.351670	0.889730	0.427530
C241	C24	0.552750	0.947270	0.458130
O331	O33	0.242110	0.388860	0.688000
O341	O34	0.177210	0.503990	0.736570
O351	O35	0.327320	0.412230	0.798110
O361	O36	0.190430	0.169660	0.815360
C251	C25	0.182420	0.388390	0.723250
C261	C26	0.120110	0.250730	0.751850
H171	H17	0.114330	0.166370	0.735670
H181	H18	0.018330	0.223070	0.760870
C271	C27	0.219410	0.280610	0.791470
O371	O37	0.722190	0.813410	0.978670
O381	O38	0.837320	0.993440	0.930100
O391	O39	0.745560	0.751570	0.868560
O401	O40	0.502990	0.645890	0.851310
C281	C28	0.721720	0.872630	0.943420
C291	C29	0.584060	0.797280	0.914820
H191	H19	0.499700	0.718700	0.931000
H201	H20	0.556400	0.871400	0.905800
C301	C30	0.613940	0.727860	0.875200
O411	O41	0.388860	0.146740	0.312000
O421	O42	0.503990	0.326770	0.263430
O431	O43	0.412230	0.084900	0.201890
O441	O44	0.169660	0.979220	0.184640
C311	C31	0.388390	0.205960	0.276750
C321	C32	0.250730	0.130610	0.248150
H211	H21	0.166370	0.052030	0.264330
H221	H22	0.223070	0.204730	0.239130
C331	C33	0.280610	0.061190	0.208530
O451	O45	0.055520	0.480080	0.645340
O461	O46	0.170650	0.660110	0.596770
O471	O47	0.078890	0.418240	0.535230
O481	O48	0.836320	0.312560	0.517980
C341	C34	0.055050	0.539300	0.610090
C351	C35	0.917390	0.463950	0.581490
H231	H23	0.833030	0.385370	0.597670
H241	H24	0.889730	0.538070	0.572470
C361	C36	0.947270	0.394530	0.541870
O491	O49	0.186590	0.908780	0.978670
O501	O50	0.006560	0.843880	0.930100
O511	O51	0.248430	0.993990	0.868560
O521	O52	0.354110	0.857100	0.851310
C371	C37	0.127370	0.849090	0.943420
C381	C38	0.202720	0.786780	0.914820
H251	H25	0.281300	0.781000	0.931000
H261	H26	0.128600	0.685000	0.905800
C391	C39	0.272140	0.886080	0.875200
O531	O53	0.853260	0.242110	0.312000
O541	O54	0.673230	0.177210	0.263430
O551	O55	0.915100	0.327320	0.201890
O561	O56	0.020780	0.190430	0.184640
C401	C40	0.794040	0.182420	0.276750
C411	C41	0.869390	0.120110	0.248150
H271	H27	0.947970	0.114330	0.264330
H281	H28	0.795270	0.018330	0.239130
C421	C42	0.938810	0.219410	0.208530
O571	O57	0.519920	0.575450	0.645340
O581	O58	0.339890	0.510550	0.596770
O591	O59	0.581760	0.660660	0.535230
O601	O60	0.687440	0.523770	0.517980
C431	C43	0.460700	0.515760	0.610090
C441	C44	0.536050	0.453450	0.581490
H291	H29	0.614630	0.447670	0.597670
H301	H30	0.461930	0.351670	0.572470
C451	C45	0.605470	0.552750	0.541870
O611	O61	0.091220	0.277810	0.978670
O621	O62	0.156120	0.162680	0.930100
O631	O63	0.006010	0.254440	0.868560
O641	O64	0.142900	0.497010	0.851310
C461	C46	0.150910	0.278280	0.943420
C471	C47	0.213220	0.415940	0.914820
H311	H31	0.219000	0.500300	0.931000
H321	H32	0.315000	0.443600	0.905800
C481	C48	0.113920	0.386060	0.875200
O651	O65	0.757890	0.611140	0.312000
O661	O66	0.822790	0.496010	0.263430
O671	O67	0.672680	0.587770	0.201890
O681	O68	0.809570	0.830340	0.184640
C491	C49	0.817580	0.611610	0.276750
C501	C50	0.879890	0.749270	0.248150
H331	H33	0.885670	0.833630	0.264330
H341	H34	0.981670	0.776930	0.239130
C511	C51	0.780590	0.719390	0.208530
O691	O69	0.424550	0.944480	0.645340
O701	O70	0.489450	0.829350	0.596770
O711	O71	0.339340	0.921110	0.535230
O721	O72	0.476230	0.163680	0.517980
C521	C52	0.484240	0.944950	0.610090
C531	C53	0.546550	0.082610	0.581490
H351	H35	0.552330	0.166970	0.597670
H361	H36	0.648330	0.110270	0.572470
C541	C54	0.447250	0.052730	0.541870
Pr11	Pr1	0.000000	0.000000	0.000000
Pr21	Pr2	0.666670	0.333330	0.333330
Pr31	Pr3	0.333330	0.666670	0.666670
Pr41	Pr4	0.000000	0.000000	0.132000
Pr51	Pr5	0.666670	0.333330	0.465340
Pr61	Pr6	0.333330	0.666670	0.798670
Pr71	Pr7	0.000000	0.000000	0.868000
Pr81	Pr8	0.666670	0.333330	0.201330
Pr91	Pr9	0.333330	0.666670	0.534660
