data_VUCTUK_clean_PM
_symmetry_space_group_name_H-M	'P1'
_cell_length_a	7.789500
_cell_length_b	8.075400
_cell_length_c	9.728600
_cell_angle_alpha	75.902000
_cell_angle_beta	79.142000
_cell_angle_gamma	86.695000
_symmetry_Int_Tables_number 1

loop_
_symmetry_equiv_pos_as_xyz
'x,y,z'

loop_
_atom_site_label
_atom_site_type_symbol
_atom_site_fract_x
_atom_site_fract_y
_atom_site_fract_z
Mn11	Mn1	0.657970	0.467030	0.252690
Mn21	Mn2	0.322380	0.191070	0.370350
P11	P1	0.573210	0.230230	0.595130
O11	O1	0.522900	0.295900	0.445800
O21	O2	0.464700	0.313900	0.705600
O31	O3	0.560300	0.039800	0.645100
O41	O4	0.772100	0.276000	0.577200
H11	H1	0.779200	0.360100	0.609000
O51	O5	0.845500	0.256700	0.221700
O61	O6	0.088700	0.140300	0.291800
O71	O7	0.911200	0.547900	0.285300
O81	O8	0.160100	0.435700	0.350100
O91	O9	0.467400	0.347300	0.163500
O101	O10	0.313100	0.401700	0.984400
C11	C1	0.982000	0.261100	0.269100
C21	C2	0.021200	0.430100	0.305500
C31	C3	0.433800	0.427300	0.042000
Mn31	Mn3	0.342030	0.532970	0.747310
Mn41	Mn4	0.677620	0.808930	0.629650
P21	P2	0.426790	0.769770	0.404870
O111	O11	0.477100	0.704100	0.554200
O121	O12	0.535300	0.686100	0.294400
O131	O13	0.439700	0.960200	0.354900
O141	O14	0.227900	0.724000	0.422800
H21	H2	0.220800	0.639900	0.391000
O151	O15	0.154500	0.743300	0.778300
O161	O16	0.911300	0.859700	0.708200
O171	O17	0.088800	0.452100	0.714700
O181	O18	0.839900	0.564300	0.649900
O191	O19	0.532600	0.652700	0.836500
O201	O20	0.686900	0.598300	0.015600
C41	C4	0.018000	0.738900	0.730900
C51	C5	0.978800	0.569900	0.694500
C61	C6	0.566200	0.572700	0.958000
