data_VUCTOE_clean_PM
_symmetry_space_group_name_H-M	'P1'
_cell_length_a	7.726600
_cell_length_b	7.964300
_cell_length_c	21.220500
_cell_angle_alpha	90.298000
_cell_angle_beta	92.209000
_cell_angle_gamma	90.805000
_symmetry_Int_Tables_number 1

loop_
_symmetry_equiv_pos_as_xyz
'x,y,z'

loop_
_atom_site_label
_atom_site_type_symbol
_atom_site_fract_x
_atom_site_fract_y
_atom_site_fract_z
Mn11	Mn1	0.611300	0.602850	0.605480
Mn21	Mn2	0.290720	0.848700	0.553810
Mn31	Mn3	0.200440	0.673590	0.823510
Mn41	Mn4	0.523340	0.424800	0.879390
Mn51	Mn5	0.597430	0.818210	0.974600
P11	P1	0.587330	0.746330	0.456220
P21	P2	0.265650	0.574500	0.979990
P31	P3	0.323100	0.053340	0.880560
O11	O1	0.508200	0.712600	0.520570
O21	O2	0.785600	0.702200	0.463530
H11	H1	0.798900	0.603500	0.453900
O31	O3	0.500100	0.634600	0.405430
O41	O4	0.579500	0.928000	0.437200
O51	O5	0.410300	0.652000	0.022330
O61	O6	0.322000	0.584100	0.911850
O71	O7	0.107400	0.694800	0.986830
H21	H2	0.018800	0.638600	0.991000
O81	O8	0.214700	0.396700	0.997820
O91	O9	0.415600	0.201000	0.852740
O101	O10	0.131300	0.112400	0.895450
H31	H3	0.110100	0.199800	0.876600
O111	O11	0.404400	0.002800	0.944640
O121	O12	0.303400	0.908500	0.835650
O131	O13	0.871100	0.510700	0.589610
O141	O14	0.131700	0.605100	0.563930
O151	O15	0.785000	0.824200	0.621370
O161	O16	0.040600	0.920200	0.591200
O171	O17	0.422500	0.535800	0.788780
O181	O18	0.608900	0.543000	0.711060
O191	O19	0.199600	0.720100	0.719540
O201	O20	0.396200	0.745700	0.645210
O211	O21	0.773800	0.355100	0.849320
O221	O22	0.033700	0.449200	0.824790
O231	O23	0.681100	0.671600	0.878480
O241	O24	0.941400	0.762500	0.849150
C11	C1	0.982600	0.624000	0.583080
C21	C2	0.932600	0.806100	0.600150
C31	C3	0.471200	0.578800	0.734790
C41	C4	0.340600	0.691500	0.697130
C51	C5	0.884000	0.469700	0.842570
C61	C6	0.829400	0.651100	0.858150
Mn61	Mn6	0.388700	0.397150	0.394520
Mn71	Mn7	0.709280	0.151300	0.446190
Mn81	Mn8	0.799560	0.326410	0.176490
Mn91	Mn9	0.476660	0.575200	0.120610
Mn101	Mn10	0.402570	0.181790	0.025400
P41	P4	0.412670	0.253670	0.543780
P51	P5	0.734350	0.425500	0.020010
P61	P6	0.676900	0.946660	0.119440
O251	O25	0.491800	0.287400	0.479430
O261	O26	0.214400	0.297800	0.536470
H41	H4	0.201100	0.396500	0.546100
O271	O27	0.499900	0.365400	0.594570
O281	O28	0.420500	0.072000	0.562800
O291	O29	0.589700	0.348000	0.977670
O301	O30	0.678000	0.415900	0.088150
O311	O31	0.892600	0.305200	0.013170
H51	H5	0.981200	0.361400	0.009000
O321	O32	0.785300	0.603300	0.002180
O331	O33	0.584400	0.799000	0.147260
O341	O34	0.868700	0.887600	0.104550
H61	H6	0.889900	0.800200	0.123400
O351	O35	0.595600	0.997200	0.055360
O361	O36	0.696600	0.091500	0.164350
O371	O37	0.128900	0.489300	0.410390
O381	O38	0.868300	0.394900	0.436070
O391	O39	0.215000	0.175800	0.378630
O401	O40	0.959400	0.079800	0.408800
O411	O41	0.577500	0.464200	0.211220
O421	O42	0.391100	0.457000	0.288940
O431	O43	0.800400	0.279900	0.280460
O441	O44	0.603800	0.254300	0.354790
O451	O45	0.226200	0.644900	0.150680
O461	O46	0.966300	0.550800	0.175210
O471	O47	0.318900	0.328400	0.121520
O481	O48	0.058600	0.237500	0.150850
C71	C7	0.017400	0.376000	0.416920
C81	C8	0.067400	0.193900	0.399850
C91	C9	0.528800	0.421200	0.265210
C101	C10	0.659400	0.308500	0.302870
C111	C11	0.116000	0.530300	0.157430
C121	C12	0.170600	0.348900	0.141850
