data_VUFBEE_clean_PM
_symmetry_space_group_name_H-M	'P1'
_cell_length_a	7.070000
_cell_length_b	12.356000
_cell_length_c	17.120000
_cell_angle_alpha	75.698000
_cell_angle_beta	85.651000
_cell_angle_gamma	78.331000
_symmetry_Int_Tables_number 1

loop_
_symmetry_equiv_pos_as_xyz
'x,y,z'

loop_
_atom_site_label
_atom_site_type_symbol
_atom_site_fract_x
_atom_site_fract_y
_atom_site_fract_z
Mn11	Mn1	0.250680	0.750160	0.749940
V11	V1	0.469080	0.703730	0.572710
V21	V2	0.031360	0.796220	0.927550
V31	V3	0.266500	0.247070	0.752880
V41	V4	0.765520	0.253170	0.747680
P11	P1	0.066030	0.014890	0.783550
O11	O1	0.130400	0.930800	0.730400
O21	O2	0.214500	0.089700	0.782700
O31	O3	0.031400	0.950000	0.872300
O41	O4	0.871200	0.090100	0.752800
P21	P2	0.486330	0.739580	0.411830
P31	P3	0.434580	0.485050	0.716450
P41	P4	0.014900	0.760940	0.088470
O51	O5	0.654600	0.774400	0.357300
O61	O6	0.320700	0.730400	0.363900
O71	O7	0.544300	0.628000	0.477500
O81	O8	0.410700	0.820700	0.468600
O91	O9	0.286200	0.409600	0.718100
O101	O10	0.629400	0.410200	0.747100
O111	O11	0.465300	0.549500	0.627900
O121	O12	0.368900	0.569700	0.769200
O131	O13	0.182100	0.769300	0.137800
O141	O14	0.094400	0.679300	0.031900
O151	O15	0.957000	0.871500	0.022480
O161	O16	0.846700	0.725200	0.141700
O171	O17	0.512400	0.205000	0.787400
O181	O18	0.284500	0.763300	0.622700
O191	O19	0.993700	0.295400	0.713300
O201	O20	0.217000	0.737400	0.877300
Mn21	Mn2	0.749320	0.249840	0.250060
V51	V5	0.530920	0.296270	0.427290
V61	V6	0.968640	0.203780	0.072450
V71	V7	0.733500	0.752930	0.247120
V81	V8	0.234480	0.746830	0.252320
P51	P5	0.933970	0.985110	0.216450
O211	O21	0.869600	0.069200	0.269600
O221	O22	0.785500	0.910300	0.217300
O231	O23	0.968600	0.050000	0.127700
O241	O24	0.128800	0.909900	0.247200
P61	P6	0.513670	0.260420	0.588170
P71	P7	0.565420	0.514950	0.283550
P81	P8	0.985100	0.239060	0.911530
O251	O25	0.345400	0.225600	0.642700
O261	O26	0.679300	0.269600	0.636100
O271	O27	0.455700	0.372000	0.522500
O281	O28	0.589300	0.179300	0.531400
O291	O29	0.713800	0.590400	0.281900
O301	O30	0.370600	0.589800	0.252900
O311	O31	0.534700	0.450500	0.372100
O321	O32	0.631100	0.430300	0.230800
O331	O33	0.817900	0.230700	0.862200
O341	O34	0.905600	0.320700	0.968100
O351	O35	0.043000	0.128500	0.977520
O361	O36	0.153300	0.274800	0.858300
O371	O37	0.487600	0.795000	0.212600
O381	O38	0.715500	0.236700	0.377300
O391	O39	0.006300	0.704600	0.286700
O401	O40	0.783000	0.262600	0.122700
