data_VUGWUR_clean_PM
_symmetry_space_group_name_H-M	'P1'
_cell_length_a	9.557400
_cell_length_b	12.605600
_cell_length_c	18.989200
_cell_angle_alpha	106.131000
_cell_angle_beta	98.971000
_cell_angle_gamma	100.479000
_symmetry_Int_Tables_number 1

loop_
_symmetry_equiv_pos_as_xyz
'x,y,z'

loop_
_atom_site_label
_atom_site_type_symbol
_atom_site_fract_x
_atom_site_fract_y
_atom_site_fract_z
La11	La1	0.766820	0.981790	0.996150
O11	O1	0.690500	0.022700	0.119570
O21	O2	0.459800	0.031100	0.088200
N11	N1	0.000400	0.147500	0.678600
O31	O3	0.997500	0.889000	0.925600
O41	O4	0.760600	0.814000	0.883300
O51	O5	0.857900	0.067300	0.901300
N21	N2	0.957200	0.608900	0.674700
O61	O6	0.102600	0.123900	0.935400
C11	C1	0.922000	0.232200	0.577500
C21	C2	0.980900	0.348300	0.602300
C31	C3	0.712500	0.258800	0.501600
C41	C4	0.908600	0.420000	0.574700
C51	C5	0.568100	0.080900	0.217100
C61	C6	0.773500	0.374900	0.522800
C71	C7	0.443400	0.140300	0.315900
H11	H1	0.356100	0.151300	0.331700
C81	C8	0.442100	0.099200	0.240600
H21	H2	0.354000	0.083300	0.204400
C91	C9	0.784000	0.185200	0.527200
C101	C10	0.988000	0.122700	0.816000
C111	C11	0.695100	0.102100	0.271900
H31	H3	0.782300	0.086900	0.257800
C121	C12	0.874500	0.145100	0.701600
H41	H4	0.791700	0.153400	0.670700
C131	C13	0.982000	0.103300	0.891400
C141	C14	0.691700	0.145400	0.346600
H51	H5	0.777900	0.161400	0.384000
C151	C15	0.572000	0.040400	0.134300
C161	C16	0.124100	0.397500	0.659500
H61	H6	0.146300	0.340700	0.683000
H71	H7	0.116700	0.465200	0.698100
H81	H8	0.202100	0.418400	0.634400
C171	C17	0.865500	0.130500	0.770100
H91	H9	0.775500	0.125900	0.785800
C181	C18	0.007400	0.153300	0.600300
H101	H10	0.110600	0.179200	0.598400
H111	H11	0.969100	0.076100	0.563700
C191	C19	0.117100	0.128100	0.790800
H121	H12	0.202900	0.123800	0.821700
C201	C20	0.916500	0.741000	0.807900
C211	C21	0.055900	0.737100	0.797500
H131	H13	0.138400	0.779800	0.836500
C221	C22	0.979700	0.546300	0.599800
H141	H14	0.085700	0.556500	0.602000
H151	H15	0.939200	0.579500	0.562000
C231	C23	0.889800	0.819600	0.877700
C241	C24	0.822600	0.608600	0.685100
H161	H16	0.741700	0.562300	0.646200
C251	C25	0.721100	0.059400	0.501700
H171	H17	0.636000	0.039400	0.460300
H181	H18	0.691400	0.036800	0.543600
H191	H19	0.794700	0.019600	0.484700
C261	C26	0.798600	0.674000	0.751100
H201	H20	0.701900	0.673200	0.757600
C271	C27	0.120700	0.139600	0.721300
H211	H21	0.208500	0.141800	0.703500
C281	C28	0.562700	0.209100	0.449200
H221	H22	0.510200	0.146100	0.463800
H231	H23	0.506300	0.268400	0.455500
C291	C29	0.073800	0.670900	0.730300
H241	H24	0.169400	0.668500	0.722800
C301	C30	0.691800	0.450400	0.489700
H251	H25	0.659700	0.415300	0.435100
H261	H26	0.756900	0.525500	0.501100
H271	H27	0.606700	0.458400	0.511700
N31	N3	0.569300	0.165000	0.367100
La21	La2	0.233180	0.018210	0.003850
O71	O7	0.309500	0.977300	0.880430
O81	O8	0.540200	0.968900	0.911800
N41	N4	0.999600	0.852500	0.321400
O91	O9	0.002500	0.111000	0.074400
O101	O10	0.239400	0.186000	0.116700
O111	O11	0.142100	0.932700	0.098700
N51	N5	0.042800	0.391100	0.325300
O121	O12	0.897400	0.876100	0.064600
C311	C31	0.078000	0.767800	0.422500
C321	C32	0.019100	0.651700	0.397700
C331	C33	0.287500	0.741200	0.498400
C341	C34	0.091400	0.580000	0.425300
C351	C35	0.431900	0.919100	0.782900
C361	C36	0.226500	0.625100	0.477200
C371	C37	0.556600	0.859700	0.684100
H281	H28	0.643900	0.848700	0.668300
C381	C38	0.557900	0.900800	0.759400
H291	H29	0.646000	0.916700	0.795600
C391	C39	0.216000	0.814800	0.472800
C401	C40	0.012000	0.877300	0.184000
C411	C41	0.304900	0.897900	0.728100
H301	H30	0.217700	0.913100	0.742200
C421	C42	0.125500	0.854900	0.298400
H311	H31	0.208300	0.846600	0.329300
C431	C43	0.018000	0.896700	0.108600
C441	C44	0.308300	0.854600	0.653400
H321	H32	0.222100	0.838600	0.616000
C451	C45	0.428000	0.959600	0.865700
C461	C46	0.875900	0.602500	0.340500
H331	H33	0.853700	0.659300	0.317000
H341	H34	0.883300	0.534800	0.301900
H351	H35	0.797900	0.581600	0.365600
C471	C47	0.134500	0.869500	0.229900
H361	H36	0.224500	0.874100	0.214200
C481	C48	0.992600	0.846700	0.399700
H371	H37	0.889400	0.820800	0.401600
H381	H38	0.030900	0.923900	0.436300
C491	C49	0.882900	0.871900	0.209200
H391	H39	0.797100	0.876200	0.178300
C501	C50	0.083500	0.259000	0.192100
C511	C51	0.944100	0.262900	0.202500
H401	H40	0.861600	0.220200	0.163500
C521	C52	0.020300	0.453700	0.400200
H411	H41	0.914300	0.443500	0.398000
H421	H42	0.060800	0.420500	0.438000
C531	C53	0.110200	0.180400	0.122300
C541	C54	0.177400	0.391400	0.314900
H431	H43	0.258300	0.437700	0.353800
C551	C55	0.278900	0.940600	0.498300
H441	H44	0.364000	0.960600	0.539700
H451	H45	0.308600	0.963200	0.456400
H461	H46	0.205300	0.980400	0.515300
C561	C56	0.201400	0.326000	0.248900
H471	H47	0.298100	0.326800	0.242400
C571	C57	0.879300	0.860400	0.278700
H481	H48	0.791500	0.858200	0.296500
C581	C58	0.437300	0.790900	0.550800
H491	H49	0.489800	0.853900	0.536200
H501	H50	0.493700	0.731600	0.544500
C591	C59	0.926200	0.329100	0.269700
H511	H51	0.830600	0.331500	0.277200
C601	C60	0.308200	0.549600	0.510300
H521	H52	0.340300	0.584700	0.564900
H531	H53	0.243100	0.474500	0.498900
H541	H54	0.393300	0.541600	0.488300
N61	N6	0.430700	0.835000	0.632900
