data_VUGXAY_clean_PM
_symmetry_space_group_name_H-M	'P1'
_cell_length_a	9.525100
_cell_length_b	12.560500
_cell_length_c	18.923100
_cell_angle_alpha	106.077000
_cell_angle_beta	98.874000
_cell_angle_gamma	100.643000
_symmetry_Int_Tables_number 1

loop_
_symmetry_equiv_pos_as_xyz
'x,y,z'

loop_
_atom_site_label
_atom_site_type_symbol
_atom_site_fract_x
_atom_site_fract_y
_atom_site_fract_z
Ce11	Ce1	0.234130	0.017790	0.003910
O11	O1	0.457800	0.029400	0.087550
O21	O2	0.688800	0.020300	0.118650
O31	O3	0.002000	0.891300	0.924200
N11	N1	0.568100	0.159300	0.367100
O41	O4	0.763200	0.818900	0.883600
N21	N2	0.005100	0.153000	0.682200
O51	O5	0.106300	0.126800	0.938700
O61	O6	0.860400	0.070700	0.904900
N31	N3	0.954900	0.610400	0.673100
C11	C1	0.924100	0.232400	0.578500
C21	C2	0.891500	0.823400	0.877200
C31	C3	0.566200	0.076600	0.216900
C41	C4	0.905400	0.418900	0.573300
C51	C5	0.570100	0.037900	0.134000
C61	C6	0.980900	0.348500	0.602300
C71	C7	0.439900	0.096400	0.240400
H11	H1	0.351800	0.081900	0.204300
C81	C8	0.710600	0.253400	0.501700
C91	C9	0.692300	0.096100	0.271200
H21	H2	0.779500	0.080800	0.256700
C101	C10	0.442400	0.137000	0.315700
H31	H3	0.355500	0.149500	0.331800
C111	C11	0.770700	0.372700	0.522900
C121	C12	0.690000	0.138100	0.346800
H41	H4	0.775900	0.151700	0.384200
C131	C13	0.916200	0.742000	0.805300
C141	C14	0.991300	0.126300	0.819200
C151	C15	0.786200	0.183200	0.528300
C161	C16	0.878900	0.147800	0.704500
H51	H5	0.795000	0.153000	0.672500
C171	C17	0.011100	0.155000	0.602100
H61	H6	0.114300	0.180900	0.599500
H71	H7	0.972500	0.076600	0.566500
C181	C18	0.122400	0.133500	0.794600
H81	H8	0.208100	0.130000	0.826200
C191	C19	0.869400	0.134800	0.773100
H91	H9	0.779300	0.131700	0.789100
C201	C20	0.124100	0.401400	0.659400
H101	H10	0.162700	0.341400	0.673600
H111	H11	0.108000	0.455200	0.704200
H121	H12	0.194500	0.442000	0.637400
C211	C21	0.054900	0.739400	0.794700
H131	H13	0.137700	0.783500	0.833500
C221	C22	0.797500	0.676200	0.749800
H141	H14	0.701200	0.676900	0.757200
C231	C23	0.072800	0.672600	0.727800
H151	H15	0.168300	0.670100	0.719800
C241	C24	0.818600	0.609600	0.683700
H161	H16	0.736800	0.562700	0.645200
C251	C25	0.975000	0.545400	0.597200
H171	H17	0.081100	0.556200	0.598400
H181	H18	0.932300	0.577600	0.559100
C261	C26	0.986000	0.107200	0.894900
C271	C27	0.128800	0.145500	0.725100
H191	H19	0.217200	0.148500	0.707500
C281	C28	0.561100	0.202400	0.450400
H201	H20	0.502900	0.260700	0.457100
H211	H21	0.510500	0.138100	0.464900
C291	C29	0.684600	0.443800	0.488200
H221	H22	0.602900	0.455100	0.512900
H231	H23	0.646500	0.403800	0.434300
H241	H24	0.749000	0.518100	0.495200
C301	C30	0.726800	0.054600	0.503300
H251	H25	0.624900	0.034900	0.475600
H261	H26	0.731500	0.028500	0.547700
H271	H27	0.785800	0.017400	0.470600
Ce21	Ce2	0.765870	0.982210	0.996090
O71	O7	0.542200	0.970600	0.912450
O81	O8	0.311200	0.979700	0.881350
O91	O9	0.998000	0.108700	0.075800
N41	N4	0.431900	0.840700	0.632900
O101	O10	0.236800	0.181100	0.116400
N51	N5	0.994900	0.847000	0.317800
O111	O11	0.893700	0.873200	0.061300
O121	O12	0.139600	0.929300	0.095100
N61	N6	0.045100	0.389600	0.326900
C311	C31	0.075900	0.767600	0.421500
C321	C32	0.108500	0.176600	0.122800
C331	C33	0.433800	0.923400	0.783100
C341	C34	0.094600	0.581100	0.426700
C351	C35	0.429900	0.962100	0.866000
C361	C36	0.019100	0.651500	0.397700
C371	C37	0.560100	0.903600	0.759600
H281	H28	0.648200	0.918100	0.795700
C381	C38	0.289400	0.746600	0.498300
C391	C39	0.307700	0.903900	0.728800
H291	H29	0.220500	0.919200	0.743300
C401	C40	0.557600	0.863000	0.684300
H301	H30	0.644500	0.850500	0.668200
C411	C41	0.229300	0.627300	0.477100
C421	C42	0.310000	0.861900	0.653200
H311	H31	0.224100	0.848300	0.615800
C431	C43	0.083800	0.258000	0.194700
C441	C44	0.008700	0.873700	0.180800
C451	C45	0.213800	0.816800	0.471700
C461	C46	0.121100	0.852200	0.295500
H321	H32	0.205000	0.847000	0.327500
C471	C47	0.988900	0.845000	0.397900
H331	H33	0.885700	0.819100	0.400500
H341	H34	0.027500	0.923400	0.433500
C481	C48	0.877600	0.866500	0.205400
H351	H35	0.791900	0.870000	0.173800
C491	C49	0.130600	0.865200	0.226900
H361	H36	0.220700	0.868300	0.210900
C501	C50	0.875900	0.598600	0.340600
H371	H37	0.837300	0.658600	0.326400
H381	H38	0.892000	0.544800	0.295800
H391	H39	0.805500	0.558000	0.362600
C511	C51	0.945100	0.260600	0.205300
H401	H40	0.862300	0.216500	0.166500
C521	C52	0.202500	0.323800	0.250200
H411	H41	0.298800	0.323100	0.242800
C531	C53	0.927200	0.327400	0.272200
H421	H42	0.831700	0.329900	0.280200
C541	C54	0.181400	0.390400	0.316300
H431	H43	0.263200	0.437300	0.354800
C551	C55	0.025000	0.454600	0.402800
H441	H44	0.918900	0.443800	0.401600
H451	H45	0.067700	0.422400	0.440900
C561	C56	0.014000	0.892800	0.105100
C571	C57	0.871200	0.854500	0.274900
H461	H46	0.782800	0.851500	0.292500
C581	C58	0.438900	0.797600	0.549600
H471	H47	0.497100	0.739300	0.542900
H481	H48	0.489500	0.861900	0.535100
C591	C59	0.315400	0.556200	0.511800
H491	H49	0.397100	0.544900	0.487100
H501	H50	0.353500	0.596200	0.565700
H511	H51	0.251000	0.481900	0.504800
C601	C60	0.273200	0.945400	0.496700
H521	H52	0.375100	0.965100	0.524400
H531	H53	0.268500	0.971500	0.452300
H541	H54	0.214200	0.982600	0.529400
