data_VUHGAH_clean_PM
_symmetry_space_group_name_H-M	'P1'
_cell_length_a	19.485000
_cell_length_b	7.084000
_cell_length_c	12.134000
_cell_angle_alpha	90.000000
_cell_angle_beta	103.330000
_cell_angle_gamma	90.000000
_symmetry_Int_Tables_number 1

loop_
_symmetry_equiv_pos_as_xyz
'x,y,z'

loop_
_atom_site_label
_atom_site_type_symbol
_atom_site_fract_x
_atom_site_fract_y
_atom_site_fract_z
Co11	Co1	0.716170	0.856650	0.862770
O11	O1	0.687790	0.835200	0.017640
O21	O2	0.739580	0.085300	0.114900
N11	N1	0.720120	0.854800	0.516170
N21	N2	0.740730	0.878500	0.703100
N31	N3	0.500360	0.710200	0.251300
N41	N4	0.384640	0.739200	0.203900
C11	C1	0.680870	0.841700	0.401200
C21	C2	0.611870	0.772900	0.380900
H11	H1	0.592400	0.732000	0.441700
C31	C3	0.572410	0.765700	0.270200
C41	C4	0.601510	0.816000	0.180000
H21	H2	0.574600	0.805000	0.104300
C51	C5	0.670690	0.882700	0.201900
C61	C6	0.710070	0.899100	0.313000
H31	H3	0.756500	0.949200	0.328100
C71	C7	0.691350	0.882600	0.607100
H41	H4	0.642500	0.902300	0.602500
C81	C8	0.803730	0.851200	0.671500
H51	H5	0.848700	0.843800	0.722500
C91	C9	0.792320	0.836400	0.557300
H61	H6	0.826800	0.817400	0.514300
C101	C10	0.444920	0.810400	0.192800
H71	H7	0.449000	0.919100	0.148900
C111	C11	0.402470	0.582600	0.272800
H81	H8	0.369700	0.500100	0.295300
C121	C12	0.473430	0.564300	0.303300
H91	H9	0.499400	0.469900	0.350900
C131	C13	0.702040	0.941800	0.105000
Co21	Co2	0.216170	0.356650	0.862770
O31	O3	0.187790	0.335200	0.017640
O41	O4	0.239580	0.585300	0.114900
N51	N5	0.220120	0.354800	0.516170
N61	N6	0.240730	0.378500	0.703100
N71	N7	0.000360	0.210200	0.251300
N81	N8	0.884640	0.239200	0.203900
C141	C14	0.180870	0.341700	0.401200
C151	C15	0.111870	0.272900	0.380900
H101	H10	0.092400	0.232000	0.441700
C161	C16	0.072410	0.265700	0.270200
C171	C17	0.101510	0.316000	0.180000
H111	H11	0.074600	0.305000	0.104300
C181	C18	0.170690	0.382700	0.201900
C191	C19	0.210070	0.399100	0.313000
H121	H12	0.256500	0.449200	0.328100
C201	C20	0.191350	0.382600	0.607100
H131	H13	0.142500	0.402300	0.602500
C211	C21	0.303730	0.351200	0.671500
H141	H14	0.348700	0.343800	0.722500
C221	C22	0.292320	0.336400	0.557300
H151	H15	0.326800	0.317400	0.514300
C231	C23	0.944920	0.310400	0.192800
H161	H16	0.949000	0.419100	0.148900
C241	C24	0.902470	0.082600	0.272800
H171	H17	0.869700	0.000100	0.295300
C251	C25	0.973430	0.064300	0.303300
H181	H18	0.999400	0.969900	0.350900
C261	C26	0.202040	0.441800	0.105000
Co31	Co3	0.283830	0.856650	0.137230
O51	O5	0.312210	0.835200	0.982360
O61	O6	0.260420	0.085300	0.885100
N91	N9	0.279880	0.854800	0.483830
N101	N10	0.259270	0.878500	0.296900
N111	N11	0.499640	0.710200	0.748700
N121	N12	0.615360	0.739200	0.796100
C271	C27	0.319130	0.841700	0.598800
C281	C28	0.388130	0.772900	0.619100
H191	H19	0.407600	0.732000	0.558300
C291	C29	0.427590	0.765700	0.729800
C301	C30	0.398490	0.816000	0.820000
H201	H20	0.425400	0.805000	0.895700
C311	C31	0.329310	0.882700	0.798100
C321	C32	0.289930	0.899100	0.687000
H211	H21	0.243500	0.949200	0.671900
C331	C33	0.308650	0.882600	0.392900
H221	H22	0.357500	0.902300	0.397500
C341	C34	0.196270	0.851200	0.328500
H231	H23	0.151300	0.843800	0.277500
C351	C35	0.207680	0.836400	0.442700
H241	H24	0.173200	0.817400	0.485700
C361	C36	0.555080	0.810400	0.807200
H251	H25	0.551000	0.919100	0.851100
C371	C37	0.597530	0.582600	0.727200
H261	H26	0.630300	0.500100	0.704700
C381	C38	0.526570	0.564300	0.696700
H271	H27	0.500600	0.469900	0.649100
C391	C39	0.297960	0.941800	0.895000
Co41	Co4	0.783830	0.356650	0.137230
O71	O7	0.812210	0.335200	0.982360
O81	O8	0.760420	0.585300	0.885100
N131	N13	0.779880	0.354800	0.483830
N141	N14	0.759270	0.378500	0.296900
N151	N15	0.999640	0.210200	0.748700
N161	N16	0.115360	0.239200	0.796100
C401	C40	0.819130	0.341700	0.598800
C411	C41	0.888130	0.272900	0.619100
H281	H28	0.907600	0.232000	0.558300
C421	C42	0.927590	0.265700	0.729800
C431	C43	0.898490	0.316000	0.820000
H291	H29	0.925400	0.305000	0.895700
C441	C44	0.829310	0.382700	0.798100
C451	C45	0.789930	0.399100	0.687000
H301	H30	0.743500	0.449200	0.671900
C461	C46	0.808650	0.382600	0.392900
H311	H31	0.857500	0.402300	0.397500
C471	C47	0.696270	0.351200	0.328500
H321	H32	0.651300	0.343800	0.277500
C481	C48	0.707680	0.336400	0.442700
H331	H33	0.673200	0.317400	0.485700
C491	C49	0.055080	0.310400	0.807200
H341	H34	0.051000	0.419100	0.851100
C501	C50	0.097530	0.082600	0.727200
H351	H35	0.130300	0.000100	0.704700
C511	C51	0.026570	0.064300	0.696700
H361	H36	0.000600	0.969900	0.649100
C521	C52	0.797960	0.441800	0.895000
