data_VUHJAK_clean_PM
_symmetry_space_group_name_H-M	'P1'
_cell_length_a	14.656000
_cell_length_b	14.656000
_cell_length_c	16.905000
_cell_angle_alpha	90.000000
_cell_angle_beta	90.000000
_cell_angle_gamma	120.000000
_symmetry_Int_Tables_number 1

loop_
_symmetry_equiv_pos_as_xyz
'x,y,z'

loop_
_atom_site_label
_atom_site_type_symbol
_atom_site_fract_x
_atom_site_fract_y
_atom_site_fract_z
Cu11	Cu1	0.116740	0.439440	0.858310
Cu21	Cu2	0.322700	0.883260	0.191640
Cu31	Cu3	0.560560	0.677300	0.524980
Cu41	Cu4	0.883260	0.560560	0.358310
Cu51	Cu5	0.677300	0.116740	0.691640
Cu61	Cu6	0.439440	0.322700	0.024980
Cu71	Cu7	0.677300	0.560560	0.475020
Cu81	Cu8	0.439440	0.116740	0.141690
Cu91	Cu9	0.883260	0.322700	0.808360
Cu101	Cu10	0.322700	0.439440	0.975020
Cu111	Cu11	0.560560	0.883260	0.641690
Cu121	Cu12	0.116740	0.677300	0.308360
Cu131	Cu13	0.000000	0.163850	0.833330
Cu141	Cu14	0.163850	0.000000	0.166670
Cu151	Cu15	0.836150	0.836150	0.500000
Cu161	Cu16	0.000000	0.836150	0.333330
Cu171	Cu17	0.836150	0.000000	0.666670
Cu181	Cu18	0.163850	0.163850	0.000000
P11	P1	0.080620	0.315620	0.005770
P21	P2	0.235000	0.919380	0.339100
P31	P3	0.684380	0.765000	0.672440
P41	P4	0.919380	0.684380	0.505770
P51	P5	0.765000	0.080620	0.839100
P61	P6	0.315620	0.235000	0.172440
P71	P7	0.765000	0.684380	0.327560
P81	P8	0.315620	0.080620	0.994230
P91	P9	0.919380	0.235000	0.660900
P101	P10	0.235000	0.315620	0.827560
P111	P11	0.684380	0.919380	0.494230
P121	P12	0.080620	0.765000	0.160900
H11	H1	0.064500	0.442300	0.131600
H21	H2	0.774000	0.316000	0.179000
H31	H3	0.736000	0.213000	0.077000
H41	H4	0.859000	0.211000	0.011000
H51	H5	0.377800	0.935500	0.464930
H61	H6	0.542000	0.226000	0.512330
H71	H7	0.477000	0.264000	0.410330
H81	H8	0.352000	0.141000	0.344330
H91	H9	0.557700	0.622200	0.798270
H101	H10	0.684000	0.458000	0.845670
H111	H11	0.787000	0.523000	0.743670
H121	H12	0.789000	0.648000	0.677670
H131	H13	0.935500	0.557700	0.631600
H141	H14	0.226000	0.684000	0.679000
H151	H15	0.264000	0.787000	0.577000
H161	H16	0.141000	0.789000	0.511000
H171	H17	0.622200	0.064500	0.964930
H181	H18	0.458000	0.774000	0.012330
H191	H19	0.523000	0.736000	0.910330
H201	H20	0.648000	0.859000	0.844330
H211	H21	0.442300	0.377800	0.298270
H221	H22	0.316000	0.542000	0.345670
H231	H23	0.213000	0.477000	0.243670
H241	H24	0.211000	0.352000	0.177670
H251	H25	0.622200	0.557700	0.201730
H261	H26	0.458000	0.684000	0.154330
H271	H27	0.523000	0.787000	0.256330
H281	H28	0.648000	0.789000	0.322330
H291	H29	0.442300	0.064500	0.868400
H301	H30	0.316000	0.774000	0.821000
H311	H31	0.213000	0.736000	0.923000
H321	H32	0.211000	0.859000	0.989000
H331	H33	0.935500	0.377800	0.535070
H341	H34	0.226000	0.542000	0.487670
H351	H35	0.264000	0.477000	0.589670
H361	H36	0.141000	0.352000	0.655670
H371	H37	0.377800	0.442300	0.701730
H381	H38	0.542000	0.316000	0.654330
H391	H39	0.477000	0.213000	0.756330
H401	H40	0.352000	0.211000	0.822330
H411	H41	0.557700	0.935500	0.368400
H421	H42	0.684000	0.226000	0.321000
H431	H43	0.787000	0.264000	0.423000
H441	H44	0.789000	0.141000	0.489000
H451	H45	0.064500	0.622200	0.035070
H461	H46	0.774000	0.458000	0.987670
H471	H47	0.736000	0.523000	0.089670
H481	H48	0.859000	0.648000	0.155670
C11	C1	0.979400	0.322200	0.064600
C21	C2	0.004600	0.397100	0.124900
C31	C3	0.925100	0.395100	0.170900
C41	C4	0.819100	0.316900	0.157300
C51	C5	0.794800	0.245400	0.097300
C61	C6	0.874300	0.247200	0.050200
C71	C7	0.950000	0.477600	0.233900
C81	C8	0.342800	0.020600	0.397930
C91	C9	0.392500	0.995400	0.458230
C101	C10	0.470000	0.074900	0.504230
C111	C11	0.497800	0.180900	0.490630
C121	C12	0.450600	0.205200	0.430630
C131	C13	0.372900	0.125700	0.383530
C141	C14	0.527600	0.050000	0.567230
C151	C15	0.677800	0.657200	0.731270
C161	C16	0.602900	0.607500	0.791570
C171	C17	0.604900	0.530000	0.837570
C181	C18	0.683100	0.502200	0.823970
C191	C19	0.754600	0.549400	0.763970
C201	C20	0.752800	0.627100	0.716870
C211	C21	0.522400	0.472400	0.900570
C221	C22	0.020600	0.677800	0.564600
C231	C23	0.995400	0.602900	0.624900
C241	C24	0.074900	0.604900	0.670900
C251	C25	0.180900	0.683100	0.657300
C261	C26	0.205200	0.754600	0.597300
C271	C27	0.125700	0.752800	0.550200
C281	C28	0.050000	0.522400	0.733900
C291	C29	0.657200	0.979400	0.897930
C301	C30	0.607500	0.004600	0.958230
C311	C31	0.530000	0.925100	0.004230
C321	C32	0.502200	0.819100	0.990630
C331	C33	0.549400	0.794800	0.930630
C341	C34	0.627100	0.874300	0.883530
C351	C35	0.472400	0.950000	0.067230
C361	C36	0.322200	0.342800	0.231270
C371	C37	0.397100	0.392500	0.291570
C381	C38	0.395100	0.470000	0.337570
C391	C39	0.316900	0.497800	0.323970
C401	C40	0.245400	0.450600	0.263970
C411	C41	0.247200	0.372900	0.216870
C421	C42	0.477600	0.527600	0.400570
C431	C43	0.657200	0.677800	0.268730
C441	C44	0.607500	0.602900	0.208430
C451	C45	0.530000	0.604900	0.162430
C461	C46	0.502200	0.683100	0.176030
C471	C47	0.549400	0.754600	0.236030
C481	C48	0.627100	0.752800	0.283130
C491	C49	0.472400	0.522400	0.099430
C501	C50	0.322200	0.979400	0.935400
C511	C51	0.397100	0.004600	0.875100
C521	C52	0.395100	0.925100	0.829100
C531	C53	0.316900	0.819100	0.842700
C541	C54	0.245400	0.794800	0.902700
C551	C55	0.247200	0.874300	0.949800
C561	C56	0.477600	0.950000	0.766100
C571	C57	0.020600	0.342800	0.602070
C581	C58	0.995400	0.392500	0.541770
C591	C59	0.074900	0.470000	0.495770
C601	C60	0.180900	0.497800	0.509370
C611	C61	0.205200	0.450600	0.569370
C621	C62	0.125700	0.372900	0.616470
C631	C63	0.050000	0.527600	0.432770
C641	C64	0.342800	0.322200	0.768730
C651	C65	0.392500	0.397100	0.708430
C661	C66	0.470000	0.395100	0.662430
C671	C67	0.497800	0.316900	0.676030
C681	C68	0.450600	0.245400	0.736030
C691	C69	0.372900	0.247200	0.783130
C701	C70	0.527600	0.477600	0.599430
C711	C71	0.677800	0.020600	0.435400
C721	C72	0.602900	0.995400	0.375100
C731	C73	0.604900	0.074900	0.329100
C741	C74	0.683100	0.180900	0.342700
C751	C75	0.754600	0.205200	0.402700
C761	C76	0.752800	0.125700	0.449800
C771	C77	0.522400	0.050000	0.266100
C781	C78	0.979400	0.657200	0.102070
C791	C79	0.004600	0.607500	0.041770
C801	C80	0.925100	0.530000	0.995770
C811	C81	0.819100	0.502200	0.009370
C821	C82	0.794800	0.549400	0.069370
C831	C83	0.874300	0.627100	0.116470
C841	C84	0.950000	0.472400	0.932770
O11	O1	0.046500	0.301800	0.917500
O21	O2	0.188200	0.414600	0.019000
O31	O3	0.078900	0.217000	0.036500
O41	O4	0.046700	0.547800	0.244200
O51	O5	0.872000	0.472900	0.269900
O61	O6	0.255300	0.953500	0.250830
O71	O7	0.226400	0.811800	0.352330
O81	O8	0.138100	0.921100	0.369830
O91	O9	0.501100	0.953300	0.577530
O101	O10	0.600900	0.128000	0.603230
O111	O11	0.698200	0.744700	0.584170
O121	O12	0.585400	0.773600	0.685670
O131	O13	0.783000	0.861900	0.703170
O141	O14	0.452200	0.498900	0.910870
O151	O15	0.527100	0.399100	0.936570
O161	O16	0.953500	0.698200	0.417500
O171	O17	0.811800	0.585400	0.519000
O181	O18	0.921100	0.783000	0.536500
O191	O19	0.953300	0.452200	0.744200
O201	O20	0.128000	0.527100	0.769900
O211	O21	0.744700	0.046500	0.750830
O221	O22	0.773600	0.188200	0.852330
O231	O23	0.861900	0.078900	0.869830
O241	O24	0.498900	0.046700	0.077530
O251	O25	0.399100	0.872000	0.103230
O261	O26	0.301800	0.255300	0.084170
O271	O27	0.414600	0.226400	0.185670
O281	O28	0.217000	0.138100	0.203170
O291	O29	0.547800	0.501100	0.410870
O301	O30	0.472900	0.600900	0.436570
O311	O31	0.744700	0.698200	0.415830
O321	O32	0.773600	0.585400	0.314330
O331	O33	0.861900	0.783000	0.296830
O341	O34	0.498900	0.452200	0.089130
O351	O35	0.399100	0.527100	0.063430
O361	O36	0.301800	0.046500	0.082500
O371	O37	0.414600	0.188200	0.981000
O381	O38	0.217000	0.078900	0.963500
O391	O39	0.547800	0.046700	0.755800
O401	O40	0.472900	0.872000	0.730100
O411	O41	0.953500	0.255300	0.749170
O421	O42	0.811800	0.226400	0.647670
O431	O43	0.921100	0.138100	0.630170
O441	O44	0.953300	0.501100	0.422470
O451	O45	0.128000	0.600900	0.396770
O461	O46	0.255300	0.301800	0.915830
O471	O47	0.226400	0.414600	0.814330
O481	O48	0.138100	0.217000	0.796830
O491	O49	0.501100	0.547800	0.589130
O501	O50	0.600900	0.472900	0.563430
O511	O51	0.698200	0.953500	0.582500
O521	O52	0.585400	0.811800	0.481000
O531	O53	0.783000	0.921100	0.463500
O541	O54	0.452200	0.953300	0.255800
O551	O55	0.527100	0.128000	0.230100
O561	O56	0.046500	0.744700	0.249170
O571	O57	0.188200	0.773600	0.147670
O581	O58	0.078900	0.861900	0.130170
O591	O59	0.046700	0.498900	0.922470
O601	O60	0.872000	0.399100	0.896770
O611	O61	0.033800	0.067600	0.916670
O621	O62	0.033800	0.966200	0.250000
O631	O63	0.932400	0.966200	0.583330
O641	O64	0.966200	0.932400	0.416670
O651	O65	0.966200	0.033800	0.750000
O661	O66	0.067600	0.033800	0.083330
