data_VUKJUI_clean_PM
_symmetry_space_group_name_H-M	'P1'
_cell_length_a	15.970000
_cell_length_b	28.166000
_cell_length_c	23.583000
_cell_angle_alpha	90.000000
_cell_angle_beta	108.092000
_cell_angle_gamma	90.000000
_symmetry_Int_Tables_number 1

loop_
_symmetry_equiv_pos_as_xyz
'x,y,z'

loop_
_atom_site_label
_atom_site_type_symbol
_atom_site_fract_x
_atom_site_fract_y
_atom_site_fract_z
C11	C1	0.331800	0.031000	0.769000
C21	C2	0.369200	0.992700	0.739900
C31	C3	0.380400	0.946700	0.763100
H11	H1	0.368800	0.940200	0.798600
C41	C4	0.389100	0.001000	0.689300
H21	H2	0.384600	0.031800	0.674600
C51	C5	0.408400	0.911100	0.733800
H31	H3	0.418100	0.880700	0.750000
C61	C6	0.415800	0.965500	0.658500
H41	H4	0.429200	0.972100	0.623600
C71	C7	0.422100	0.920700	0.680400
C81	C8	0.436600	0.838100	0.658500
C91	C9	0.354700	0.820000	0.651800
H51	H5	0.305200	0.839300	0.639600
C101	C10	0.509100	0.809200	0.674900
H61	H6	0.564600	0.821500	0.678600
C111	C11	0.346800	0.773000	0.663300
H71	H7	0.291200	0.760500	0.658600
C121	C12	0.499300	0.762100	0.686000
H81	H8	0.548400	0.742300	0.696700
C131	C13	0.418800	0.743900	0.681500
C141	C14	0.408800	0.693400	0.698600
C151	C15	0.296100	0.206300	0.738800
C161	C16	0.229500	0.243000	0.710700
C171	C17	0.256000	0.290100	0.714800
H91	H9	0.314500	0.297900	0.734200
C181	C18	0.142900	0.231100	0.680600
H101	H10	0.125400	0.199500	0.677800
C191	C19	0.194800	0.325900	0.689600
H111	H11	0.211100	0.357700	0.692300
C201	C20	0.082800	0.266000	0.655000
H121	H12	0.024900	0.258100	0.634100
C211	C21	0.108900	0.311900	0.660400
C221	C22	0.007500	0.355000	0.580900
C231	C23	0.939500	0.387600	0.568200
H131	H13	0.926500	0.404100	0.598600
C241	C24	0.031500	0.333400	0.535300
H141	H14	0.079300	0.312800	0.544200
C251	C25	0.891900	0.395100	0.510000
H151	H15	0.844000	0.415600	0.500900
C261	C26	0.983800	0.342700	0.476800
H161	H16	0.999800	0.328400	0.446200
C271	C27	0.913900	0.372500	0.463600
C281	C28	0.854300	0.379600	0.401700
C291	C29	0.413500	0.116700	0.635700
C301	C30	0.326400	0.106100	0.590900
C311	C31	0.250500	0.121900	0.600600
H171	H17	0.254300	0.138200	0.635600
C321	C32	0.319400	0.081400	0.539500
H181	H18	0.370100	0.070400	0.532500
C331	C33	0.167900	0.114000	0.558900
H191	H19	0.117200	0.125200	0.565700
C341	C34	0.237900	0.072600	0.497700
H201	H20	0.234500	0.055600	0.463300
C351	C35	0.162600	0.089100	0.507300
C361	C36	0.048600	0.044800	0.436400
C371	C37	0.979300	0.051400	0.384100
H211	H21	0.960200	0.081700	0.370700
C381	C38	0.079700	0.001100	0.454800
H221	H22	0.126200	0.997000	0.489800
C391	C39	0.939500	0.011800	0.352500
H231	H23	0.891100	0.015800	0.318600
C401	C40	0.040000	0.961600	0.419700
H241	H24	0.062500	0.931500	0.431200
C411	C41	0.969700	0.966600	0.369700
C421	C42	0.929500	0.925700	0.332400
C431	C43	0.772300	0.219800	0.684100
C441	C44	0.757600	0.271100	0.667900
C451	C45	0.672700	0.287900	0.639300
H251	H25	0.625400	0.266900	0.630500
C461	C46	0.826700	0.302700	0.678700
H261	H26	0.884100	0.291800	0.695300
C471	C47	0.657700	0.334800	0.623800
H271	H27	0.600800	0.345300	0.604100
C481	C48	0.812200	0.350100	0.665200
H281	H28	0.859400	0.371100	0.674700
C491	C49	0.727700	0.366900	0.637500
C501	C50	0.763300	0.449400	0.638300
C511	C51	0.775700	0.478600	0.595400
H291	H29	0.748500	0.472000	0.555200
C521	C52	0.798100	0.459800	0.697400
H301	H30	0.786400	0.440500	0.726000
C531	C53	0.829400	0.518100	0.612300
H311	H31	0.839700	0.537400	0.583100
C541	C54	0.851200	0.499500	0.714400
H321	H32	0.876100	0.506400	0.754700
C551	C55	0.867800	0.529300	0.671900
C561	C56	0.928800	0.570900	0.688900
C571	C57	0.739600	0.057800	0.663300
C581	C58	0.728500	0.005800	0.654100
C591	C59	0.644700	0.986600	0.636500
H331	H33	0.595800	0.006100	0.630700
C601	C60	0.801100	0.976100	0.663600
H341	H34	0.857400	0.989100	0.674700
C611	C61	0.634300	0.938600	0.627700
H351	H35	0.577900	0.925800	0.614700
C621	C62	0.790900	0.928000	0.656900
H361	H36	0.839800	0.908200	0.664900
C631	C63	0.706000	0.909200	0.637800
C641	C64	0.752600	0.826900	0.640500
C651	C65	0.781000	0.812700	0.697800
H371	H37	0.764100	0.828600	0.727000
C661	C66	0.781100	0.806800	0.598200
H381	H38	0.763600	0.818700	0.559500
C671	C67	0.836800	0.772900	0.712100
H391	H39	0.855900	0.762000	0.751300
C681	C68	0.836800	0.768200	0.613300
H401	H40	0.856800	0.754100	0.584200
C691	C69	0.863500	0.750100	0.669900
C701	C70	0.923200	0.708500	0.685500
C711	C71	0.796200	0.129600	0.808500
C721	C72	0.834600	0.124200	0.875200
C731	C73	0.781000	0.132600	0.912300
H411	H41	0.722400	0.141500	0.895800
C741	C74	0.919500	0.110100	0.900800
H421	H42	0.955400	0.103900	0.877200
C751	C75	0.953100	0.104800	0.964200
H431	H43	0.010500	0.094200	0.981500
C761	C76	0.818300	0.127100	0.974700
H441	H44	0.783900	0.132000	0.999500
C771	C77	0.904100	0.114800	0.998300
C781	C78	0.947500	0.070700	0.090600
C791	C79	0.886700	0.035000	0.070600
H451	H45	0.843400	0.037400	0.033700
C801	C80	0.010600	0.067700	0.144900
H461	H46	0.048300	0.093100	0.159500
C811	C81	0.017900	0.026900	0.177700
H471	H47	0.064600	0.023400	0.212700
C821	C82	0.891200	0.995900	0.106100
H481	H48	0.849000	0.972100	0.093800
C831	C83	0.957000	0.991300	0.159300
C841	C84	0.960300	0.949500	0.198600
Dy11	Dy1	0.221340	0.104910	0.790030
Dy21	Dy2	0.440000	0.140550	0.781600
Dy31	Dy3	0.606700	0.142270	0.695830
Dy41	Dy4	0.914020	0.130290	0.707540
O11	O1	0.282600	0.022350	0.799600
O21	O2	0.347400	0.074180	0.758100
O31	O3	0.448100	0.885620	0.647300
O41	O4	0.476700	0.671670	0.727000
O51	O5	0.332200	0.675600	0.685200
O61	O6	0.274900	0.162240	0.737800
O71	O7	0.375100	0.217650	0.761000
O81	O8	0.050400	0.349400	0.640000
O91	O9	0.872200	0.361810	0.357000
O101	O10	0.785400	0.404270	0.393500
O111	O11	0.415400	0.141270	0.681100
O121	O12	0.483200	0.102830	0.626400
O131	O13	0.079600	0.086400	0.466900
O141	O14	0.976000	0.889700	0.334000
O151	O15	0.850800	0.928500	0.300200
O161	O16	0.706100	0.194700	0.680700
O171	O17	0.850200	0.204540	0.699700
O181	O18	0.705500	0.412150	0.617400
O191	O19	0.948000	0.588090	0.741600
O201	O20	0.961500	0.586620	0.651500
O211	O21	0.676800	0.079790	0.673200
O221	O22	0.808500	0.077410	0.660200
O231	O23	0.687700	0.862230	0.623800
O241	O24	0.943100	0.690980	0.737630
O251	O25	0.957400	0.692850	0.648400
O261	O26	0.848200	0.126900	0.779500
O271	O27	0.716000	0.137390	0.788300
O281	O28	0.944300	0.113300	0.058700
O291	O29	0.891900	0.924640	0.186800
O301	O30	0.028400	0.940850	0.240700
C851	C85	0.168200	0.531000	0.731000
C861	C86	0.130800	0.492700	0.760100
C871	C87	0.119600	0.446700	0.736900
H491	H49	0.131200	0.440200	0.701400
C881	C88	0.110900	0.501000	0.810700
H501	H50	0.115400	0.531800	0.825400
C891	C89	0.091600	0.411100	0.766200
H511	H51	0.081900	0.380700	0.750000
C901	C90	0.084200	0.465500	0.841500
H521	H52	0.070800	0.472100	0.876400
C911	C91	0.077900	0.420700	0.819600
C921	C92	0.063400	0.338100	0.841500
C931	C93	0.145300	0.320000	0.848200
H531	H53	0.194800	0.339300	0.860400
C941	C94	0.990900	0.309200	0.825100
H541	H54	0.935400	0.321500	0.821400
C951	C95	0.153200	0.273000	0.836700
H551	H55	0.208800	0.260500	0.841400
C961	C96	0.000700	0.262100	0.814000
H561	H56	0.951600	0.242300	0.803300
C971	C97	0.081200	0.243900	0.818500
C981	C98	0.091200	0.193400	0.801400
C991	C99	0.203900	0.706300	0.761200
C1001	C100	0.270500	0.743000	0.789300
C1011	C101	0.244000	0.790100	0.785200
H571	H57	0.185500	0.797900	0.765800
C1021	C102	0.357100	0.731100	0.819400
H581	H58	0.374600	0.699500	0.822200
C1031	C103	0.305200	0.825900	0.810400
H591	H59	0.288900	0.857700	0.807700
C1041	C104	0.417200	0.766000	0.845000
H601	H60	0.475100	0.758100	0.865900
C1051	C105	0.391100	0.811900	0.839600
C1061	C106	0.492500	0.855000	0.919100
C1071	C107	0.560500	0.887600	0.931800
H611	H61	0.573500	0.904100	0.901400
C1081	C108	0.468500	0.833400	0.964700
H621	H62	0.420700	0.812800	0.955800
C1091	C109	0.608100	0.895100	0.990000
H631	H63	0.656000	0.915600	0.999100
C1101	C110	0.516200	0.842700	0.023200
H641	H64	0.500200	0.828400	0.053800
C1111	C111	0.586100	0.872500	0.036400
C1121	C112	0.645700	0.879600	0.098300
C1131	C113	0.086500	0.616700	0.864300
C1141	C114	0.173600	0.606100	0.909100
C1151	C115	0.249500	0.621900	0.899400
H651	H65	0.245700	0.638200	0.864400
C1161	C116	0.180600	0.581400	0.960500
H661	H66	0.129900	0.570400	0.967500
C1171	C117	0.332100	0.614000	0.941100
H671	H67	0.382800	0.625200	0.934300
C1181	C118	0.262100	0.572600	0.002300
H681	H68	0.265500	0.555600	0.036700
C1191	C119	0.337400	0.589100	0.992700
C1201	C120	0.451400	0.544800	0.063600
C1211	C121	0.520700	0.551400	0.115900
H691	H69	0.539800	0.581700	0.129300
C1221	C122	0.420300	0.501100	0.045200
H701	H70	0.373800	0.497000	0.010200
C1231	C123	0.560500	0.511800	0.147500
H711	H71	0.608900	0.515800	0.181400
C1241	C124	0.460000	0.461600	0.080300
H721	H72	0.437500	0.431500	0.068800
C1251	C125	0.530300	0.466600	0.130300
C1261	C126	0.570500	0.425700	0.167600
C1271	C127	0.727700	0.719800	0.815900
C1281	C128	0.742400	0.771100	0.832100
C1291	C129	0.827300	0.787900	0.860700
H731	H73	0.874600	0.766900	0.869500
C1301	C130	0.673300	0.802700	0.821300
H741	H74	0.615900	0.791800	0.804700
C1311	C131	0.842300	0.834800	0.876200
H751	H75	0.899200	0.845300	0.895900
C1321	C132	0.687800	0.850100	0.834800
H761	H76	0.640600	0.871100	0.825300
C1331	C133	0.772300	0.866900	0.862500
C1341	C134	0.736700	0.949400	0.861700
C1351	C135	0.724300	0.978600	0.904600
H771	H77	0.751500	0.972000	0.944800
C1361	C136	0.701900	0.959800	0.802600
H781	H78	0.713600	0.940500	0.774000
C1371	C137	0.670600	0.018100	0.887700
H791	H79	0.660300	0.037400	0.916900
C1381	C138	0.648800	0.999500	0.785600
H801	H80	0.623900	0.006400	0.745300
C1391	C139	0.632200	0.029300	0.828100
C1401	C140	0.571200	0.070900	0.811100
C1411	C141	0.760400	0.557800	0.836700
C1421	C142	0.771500	0.505800	0.845900
C1431	C143	0.855300	0.486600	0.863500
H811	H81	0.904200	0.506100	0.869300
C1441	C144	0.698900	0.476100	0.836400
H821	H82	0.642600	0.489100	0.825300
C1451	C145	0.865700	0.438600	0.872300
H831	H83	0.922100	0.425800	0.885300
C1461	C146	0.709100	0.428000	0.843100
H841	H84	0.660200	0.408200	0.835100
C1471	C147	0.794000	0.409200	0.862200
C1481	C148	0.747400	0.326900	0.859500
C1491	C149	0.719000	0.312700	0.802200
H851	H85	0.735900	0.328600	0.773000
C1501	C150	0.718900	0.306800	0.901800
H861	H86	0.736400	0.318700	0.940500
C1511	C151	0.663200	0.272900	0.787900
H871	H87	0.644100	0.262000	0.748700
C1521	C152	0.663200	0.268200	0.886700
H881	H88	0.643200	0.254100	0.915800
C1531	C153	0.636500	0.250100	0.830100
C1541	C154	0.576800	0.208500	0.814500
C1551	C155	0.703800	0.629600	0.691500
C1561	C156	0.665400	0.624200	0.624800
C1571	C157	0.719000	0.632600	0.587700
H891	H89	0.777600	0.641500	0.604200
C1581	C158	0.580500	0.610100	0.599200
H901	H90	0.544600	0.603900	0.622800
C1591	C159	0.546900	0.604800	0.535800
H911	H91	0.489500	0.594200	0.518500
C1601	C160	0.681700	0.627100	0.525300
H921	H92	0.716100	0.632000	0.500500
C1611	C161	0.595900	0.614800	0.501700
C1621	C162	0.552500	0.570700	0.409400
C1631	C163	0.613300	0.535000	0.429400
H931	H93	0.656600	0.537400	0.466300
C1641	C164	0.489400	0.567700	0.355100
H941	H94	0.451700	0.593100	0.340500
C1651	C165	0.482100	0.526900	0.322300
H951	H95	0.435400	0.523400	0.287300
C1661	C166	0.608800	0.495900	0.393900
H961	H96	0.651000	0.472100	0.406200
C1671	C167	0.543000	0.491300	0.340700
C1681	C168	0.539700	0.449500	0.301400
Dy51	Dy5	0.278660	0.604910	0.709970
Dy61	Dy6	0.060000	0.640550	0.718400
Dy71	Dy7	0.893300	0.642270	0.804170
Dy81	Dy8	0.585980	0.630290	0.792460
O311	O31	0.217400	0.522350	0.700400
O321	O32	0.152600	0.574180	0.741900
O331	O33	0.051900	0.385620	0.852700
O341	O34	0.023300	0.171670	0.773000
O351	O35	0.167800	0.175600	0.814800
O361	O36	0.225100	0.662240	0.762200
O371	O37	0.124900	0.717650	0.739000
O381	O38	0.449600	0.849400	0.860000
O391	O39	0.627800	0.861810	0.143000
O401	O40	0.714600	0.904270	0.106500
O411	O41	0.084600	0.641270	0.818900
O421	O42	0.016800	0.602830	0.873600
O431	O43	0.420400	0.586400	0.033100
O441	O44	0.524000	0.389700	0.166000
O451	O45	0.649200	0.428500	0.199800
O461	O46	0.793900	0.694700	0.819300
O471	O47	0.649800	0.704540	0.800300
O481	O48	0.794500	0.912150	0.882600
O491	O49	0.552000	0.088090	0.758400
O501	O50	0.538500	0.086620	0.848500
O511	O51	0.823200	0.579790	0.826800
O521	O52	0.691500	0.577410	0.839800
O531	O53	0.812300	0.362230	0.876200
O541	O54	0.556900	0.190980	0.762370
O551	O55	0.542600	0.192850	0.851600
O561	O56	0.651800	0.626900	0.720500
O571	O57	0.784000	0.637390	0.711700
O581	O58	0.555700	0.613300	0.441300
O591	O59	0.608100	0.424640	0.313200
O601	O60	0.471600	0.440850	0.259300
C1691	C169	0.668200	0.969000	0.231000
C1701	C170	0.630800	0.007300	0.260100
C1711	C171	0.619600	0.053300	0.236900
H971	H97	0.631200	0.059800	0.201400
C1721	C172	0.610900	0.999000	0.310700
H981	H98	0.615400	0.968200	0.325400
C1731	C173	0.591600	0.088900	0.266200
H991	H99	0.581900	0.119300	0.250000
C1741	C174	0.584200	0.034500	0.341500
H1001	H100	0.570800	0.027900	0.376400
C1751	C175	0.577900	0.079300	0.319600
C1761	C176	0.563400	0.161900	0.341500
C1771	C177	0.645300	0.180000	0.348200
H1011	H101	0.694800	0.160700	0.360400
C1781	C178	0.490900	0.190800	0.325100
H1021	H102	0.435400	0.178500	0.321400
C1791	C179	0.653200	0.227000	0.336700
H1031	H103	0.708800	0.239500	0.341400
C1801	C180	0.500700	0.237900	0.314000
H1041	H104	0.451600	0.257700	0.303300
C1811	C181	0.581200	0.256100	0.318500
C1821	C182	0.591200	0.306600	0.301400
C1831	C183	0.703900	0.793700	0.261200
C1841	C184	0.770500	0.757000	0.289300
C1851	C185	0.744000	0.709900	0.285200
H1051	H105	0.685500	0.702100	0.265800
C1861	C186	0.857100	0.768900	0.319400
H1061	H106	0.874600	0.800500	0.322200
C1871	C187	0.805200	0.674100	0.310400
H1071	H107	0.788900	0.642300	0.307700
C1881	C188	0.917200	0.734000	0.345000
H1081	H108	0.975100	0.741900	0.365900
C1891	C189	0.891100	0.688100	0.339600
C1901	C190	0.992500	0.645000	0.419100
C1911	C191	0.060500	0.612400	0.431800
H1091	H109	0.073500	0.595900	0.401400
C1921	C192	0.968500	0.666600	0.464700
H1101	H110	0.920700	0.687200	0.455800
C1931	C193	0.108100	0.604900	0.490000
H1111	H111	0.156000	0.584400	0.499100
C1941	C194	0.016200	0.657300	0.523200
H1121	H112	0.000200	0.671600	0.553800
C1951	C195	0.086100	0.627500	0.536400
C1961	C196	0.145700	0.620400	0.598300
C1971	C197	0.586500	0.883300	0.364300
C1981	C198	0.673600	0.893900	0.409100
C1991	C199	0.749500	0.878100	0.399400
H1131	H113	0.745700	0.861800	0.364400
C2001	C200	0.680600	0.918600	0.460500
H1141	H114	0.629900	0.929600	0.467500
C2011	C201	0.832100	0.886000	0.441100
H1151	H115	0.882800	0.874800	0.434300
C2021	C202	0.762100	0.927400	0.502300
H1161	H116	0.765500	0.944400	0.536700
C2031	C203	0.837400	0.910900	0.492700
C2041	C204	0.951400	0.955200	0.563600
C2051	C205	0.020700	0.948600	0.615900
H1171	H117	0.039800	0.918300	0.629300
C2061	C206	0.920300	0.998900	0.545200
H1181	H118	0.873800	0.003000	0.510200
C2071	C207	0.060500	0.988200	0.647500
H1191	H119	0.108900	0.984200	0.681400
C2081	C208	0.960000	0.038400	0.580300
H1201	H120	0.937500	0.068500	0.568800
C2091	C209	0.030300	0.033400	0.630300
C2101	C210	0.070500	0.074300	0.667600
C2111	C211	0.227700	0.780200	0.315900
C2121	C212	0.242400	0.728900	0.332100
C2131	C213	0.327300	0.712100	0.360700
H1211	H121	0.374600	0.733100	0.369500
C2141	C214	0.173300	0.697300	0.321300
H1221	H122	0.115900	0.708200	0.304700
C2151	C215	0.342300	0.665200	0.376200
H1231	H123	0.399200	0.654700	0.395900
C2161	C216	0.187800	0.649900	0.334800
H1241	H124	0.140600	0.628900	0.325300
C2171	C217	0.272300	0.633100	0.362500
C2181	C218	0.236700	0.550600	0.361700
C2191	C219	0.224300	0.521400	0.404600
H1251	H125	0.251500	0.528000	0.444800
C2201	C220	0.201900	0.540200	0.302600
H1261	H126	0.213600	0.559500	0.274000
C2211	C221	0.170600	0.481900	0.387700
H1271	H127	0.160300	0.462600	0.416900
C2221	C222	0.148800	0.500500	0.285600
H1281	H128	0.123900	0.493600	0.245300
C2231	C223	0.132200	0.470700	0.328100
C2241	C224	0.071200	0.429100	0.311100
C2251	C225	0.260400	0.942200	0.336700
C2261	C226	0.271500	0.994200	0.345900
C2271	C227	0.355300	0.013400	0.363500
H1291	H129	0.404200	0.993900	0.369300
C2281	C228	0.198900	0.023900	0.336400
H1301	H130	0.142600	0.010900	0.325300
C2291	C229	0.365700	0.061400	0.372300
H1311	H131	0.422100	0.074200	0.385300
C2301	C230	0.209100	0.072000	0.343100
H1321	H132	0.160200	0.091800	0.335100
C2311	C231	0.294000	0.090800	0.362200
C2321	C232	0.247400	0.173100	0.359500
C2331	C233	0.219000	0.187300	0.302200
H1331	H133	0.235900	0.171400	0.273000
C2341	C234	0.218900	0.193200	0.401800
H1341	H134	0.236400	0.181300	0.440500
C2351	C235	0.163200	0.227100	0.287900
H1351	H135	0.144100	0.238000	0.248700
C2361	C236	0.163200	0.231800	0.386700
H1361	H136	0.143200	0.245900	0.415800
C2371	C237	0.136500	0.249900	0.330100
C2381	C238	0.076800	0.291500	0.314500
C2391	C239	0.203800	0.870400	0.191500
C2401	C240	0.165400	0.875800	0.124800
C2411	C241	0.219000	0.867400	0.087700
H1371	H137	0.277600	0.858500	0.104200
C2421	C242	0.080500	0.889900	0.099200
H1381	H138	0.044600	0.896100	0.122800
C2431	C243	0.046900	0.895200	0.035800
H1391	H139	0.989500	0.905800	0.018500
C2441	C244	0.181700	0.872900	0.025300
H1401	H140	0.216100	0.868000	0.000500
C2451	C245	0.095900	0.885200	0.001700
C2461	C246	0.052500	0.929300	0.909400
C2471	C247	0.113300	0.965000	0.929400
H1411	H141	0.156600	0.962600	0.966300
C2481	C248	0.989400	0.932300	0.855100
H1421	H142	0.951700	0.906900	0.840500
C2491	C249	0.982100	0.973100	0.822300
H1431	H143	0.935400	0.976600	0.787300
C2501	C250	0.108800	0.004100	0.893900
H1441	H144	0.151000	0.027900	0.906200
C2511	C251	0.043000	0.008700	0.840700
C2521	C252	0.039700	0.050500	0.801400
Dy91	Dy9	0.778660	0.895090	0.209970
Dy101	Dy10	0.560000	0.859450	0.218400
Dy111	Dy11	0.393300	0.857730	0.304170
Dy121	Dy12	0.085980	0.869710	0.292460
O611	O61	0.717400	0.977650	0.200400
O621	O62	0.652600	0.925820	0.241900
O631	O63	0.551900	0.114380	0.352700
O641	O64	0.523300	0.328330	0.273000
O651	O65	0.667800	0.324400	0.314800
O661	O66	0.725100	0.837760	0.262200
O671	O67	0.624900	0.782350	0.239000
O681	O68	0.949600	0.650600	0.360000
O691	O69	0.127800	0.638190	0.643000
O701	O70	0.214600	0.595730	0.606500
O711	O71	0.584600	0.858730	0.318900
O721	O72	0.516800	0.897170	0.373600
O731	O73	0.920400	0.913600	0.533100
O741	O74	0.024000	0.110300	0.666000
O751	O75	0.149200	0.071500	0.699800
O761	O76	0.293900	0.805300	0.319300
O771	O77	0.149800	0.795460	0.300300
O781	O78	0.294500	0.587850	0.382600
O791	O79	0.052000	0.411910	0.258400
O801	O80	0.038500	0.413380	0.348500
O811	O81	0.323200	0.920210	0.326800
O821	O82	0.191500	0.922590	0.339800
O831	O83	0.312300	0.137770	0.376200
O841	O84	0.056900	0.309020	0.262370
O851	O85	0.042600	0.307150	0.351600
O861	O86	0.151800	0.873100	0.220500
O871	O87	0.284000	0.862610	0.211700
O881	O88	0.055700	0.886700	0.941300
O891	O89	0.108100	0.075360	0.813200
O901	O90	0.971600	0.059150	0.759300
C2531	C253	0.831800	0.469000	0.269000
C2541	C254	0.869200	0.507300	0.239900
C2551	C255	0.880400	0.553300	0.263100
H1451	H145	0.868800	0.559800	0.298600
C2561	C256	0.889100	0.499000	0.189300
H1461	H146	0.884600	0.468200	0.174600
C2571	C257	0.908400	0.588900	0.233800
H1471	H147	0.918100	0.619300	0.250000
C2581	C258	0.915800	0.534500	0.158500
H1481	H148	0.929200	0.527900	0.123600
C2591	C259	0.922100	0.579300	0.180400
C2601	C260	0.936600	0.661900	0.158500
C2611	C261	0.854700	0.680000	0.151800
H1491	H149	0.805200	0.660700	0.139600
C2621	C262	0.009100	0.690800	0.174900
H1501	H150	0.064600	0.678500	0.178600
C2631	C263	0.846800	0.727000	0.163300
H1511	H151	0.791200	0.739500	0.158600
C2641	C264	0.999300	0.737900	0.186000
H1521	H152	0.048400	0.757700	0.196700
C2651	C265	0.918800	0.756100	0.181500
C2661	C266	0.908800	0.806600	0.198600
C2671	C267	0.796100	0.293700	0.238800
C2681	C268	0.729500	0.257000	0.210700
C2691	C269	0.756000	0.209900	0.214800
H1531	H153	0.814500	0.202100	0.234200
C2701	C270	0.642900	0.268900	0.180600
H1541	H154	0.625400	0.300500	0.177800
C2711	C271	0.694800	0.174100	0.189600
H1551	H155	0.711100	0.142300	0.192300
C2721	C272	0.582800	0.234000	0.155000
H1561	H156	0.524900	0.241900	0.134100
C2731	C273	0.608900	0.188100	0.160400
C2741	C274	0.507500	0.145000	0.080900
C2751	C275	0.439500	0.112400	0.068200
H1571	H157	0.426500	0.095900	0.098600
C2761	C276	0.531500	0.166600	0.035300
H1581	H158	0.579300	0.187200	0.044200
C2771	C277	0.391900	0.104900	0.010000
H1591	H159	0.344000	0.084400	0.000900
C2781	C278	0.483800	0.157300	0.976800
H1601	H160	0.499800	0.171600	0.946200
C2791	C279	0.413900	0.127500	0.963600
C2801	C280	0.354300	0.120400	0.901700
C2811	C281	0.913500	0.383300	0.135700
C2821	C282	0.826400	0.393900	0.090900
C2831	C283	0.750500	0.378100	0.100600
H1611	H161	0.754300	0.361800	0.135600
C2841	C284	0.819400	0.418600	0.039500
H1621	H162	0.870100	0.429600	0.032500
C2851	C285	0.667900	0.386000	0.058900
H1631	H163	0.617200	0.374800	0.065700
C2861	C286	0.737900	0.427400	0.997700
H1641	H164	0.734500	0.444400	0.963300
C2871	C287	0.662600	0.410900	0.007300
C2881	C288	0.548600	0.455200	0.936400
C2891	C289	0.479300	0.448600	0.884100
H1651	H165	0.460200	0.418300	0.870700
C2901	C290	0.579700	0.498900	0.954800
H1661	H166	0.626200	0.503000	0.989800
C2911	C291	0.439500	0.488200	0.852500
H1671	H167	0.391100	0.484200	0.818600
C2921	C292	0.540000	0.538400	0.919700
H1681	H168	0.562500	0.568500	0.931200
C2931	C293	0.469700	0.533400	0.869700
C2941	C294	0.429500	0.574300	0.832400
C2951	C295	0.272300	0.280200	0.184100
C2961	C296	0.257600	0.228900	0.167900
C2971	C297	0.172700	0.212100	0.139300
H1691	H169	0.125400	0.233100	0.130500
C2981	C298	0.326700	0.197300	0.178700
H1701	H170	0.384100	0.208200	0.195300
C2991	C299	0.157700	0.165200	0.123800
H1711	H171	0.100800	0.154700	0.104100
C3001	C300	0.312200	0.149900	0.165200
H1721	H172	0.359400	0.128900	0.174700
C3011	C301	0.227700	0.133100	0.137500
C3021	C302	0.263300	0.050600	0.138300
C3031	C303	0.275700	0.021400	0.095400
H1731	H173	0.248500	0.028000	0.055200
C3041	C304	0.298100	0.040200	0.197400
H1741	H174	0.286400	0.059500	0.226000
C3051	C305	0.329400	0.981900	0.112300
H1751	H175	0.339700	0.962600	0.083100
C3061	C306	0.351200	0.000500	0.214400
H1761	H176	0.376100	0.993600	0.254700
C3071	C307	0.367800	0.970700	0.171900
C3081	C308	0.428800	0.929100	0.188900
C3091	C309	0.239600	0.442200	0.163300
C3101	C310	0.228500	0.494200	0.154100
C3111	C311	0.144700	0.513400	0.136500
H1771	H177	0.095800	0.493900	0.130700
C3121	C312	0.301100	0.523900	0.163600
H1781	H178	0.357400	0.510900	0.174700
C3131	C313	0.134300	0.561400	0.127700
H1791	H179	0.077900	0.574200	0.114700
C3141	C314	0.290900	0.572000	0.156900
H1801	H180	0.339800	0.591800	0.164900
C3151	C315	0.206000	0.590800	0.137800
C3161	C316	0.252600	0.673100	0.140500
C3171	C317	0.281000	0.687300	0.197800
H1811	H181	0.264100	0.671400	0.227000
C3181	C318	0.281100	0.693200	0.098200
H1821	H182	0.263600	0.681300	0.059500
C3191	C319	0.336800	0.727100	0.212100
H1831	H183	0.355900	0.738000	0.251300
C3201	C320	0.336800	0.731800	0.113300
H1841	H184	0.356800	0.745900	0.084200
C3211	C321	0.363500	0.749900	0.169900
C3221	C322	0.423200	0.791500	0.185500
C3231	C323	0.296200	0.370400	0.308500
C3241	C324	0.334600	0.375800	0.375200
C3251	C325	0.281000	0.367400	0.412300
H1851	H185	0.222400	0.358500	0.395800
C3261	C326	0.419500	0.389900	0.400800
H1861	H186	0.455400	0.396100	0.377200
C3271	C327	0.453100	0.395200	0.464200
H1871	H187	0.510500	0.405800	0.481500
C3281	C328	0.318300	0.372900	0.474700
H1881	H188	0.283900	0.368000	0.499500
C3291	C329	0.404100	0.385200	0.498300
C3301	C330	0.447500	0.429300	0.590600
C3311	C331	0.386700	0.465000	0.570600
H1891	H189	0.343400	0.462600	0.533700
C3321	C332	0.510600	0.432300	0.644900
H1901	H190	0.548300	0.406900	0.659500
C3331	C333	0.517900	0.473100	0.677700
H1911	H191	0.564600	0.476600	0.712700
C3341	C334	0.391200	0.504100	0.606100
H1921	H192	0.349000	0.527900	0.593800
C3351	C335	0.457000	0.508700	0.659300
C3361	C336	0.460300	0.550500	0.698600
Dy131	Dy13	0.721340	0.395090	0.290030
Dy141	Dy14	0.940000	0.359450	0.281600
Dy151	Dy15	0.106700	0.357730	0.195830
Dy161	Dy16	0.414020	0.369710	0.207540
O911	O91	0.782600	0.477650	0.299600
O921	O92	0.847400	0.425820	0.258100
O931	O93	0.948100	0.614380	0.147300
O941	O94	0.976700	0.828330	0.227000
O951	O95	0.832200	0.824400	0.185200
O961	O96	0.774900	0.337760	0.237800
O971	O97	0.875100	0.282350	0.261000
O981	O98	0.550400	0.150600	0.140000
O991	O99	0.372200	0.138190	0.857000
O1001	O100	0.285400	0.095730	0.893500
O1011	O101	0.915400	0.358730	0.181100
O1021	O102	0.983200	0.397170	0.126400
O1031	O103	0.579600	0.413600	0.966900
O1041	O104	0.476000	0.610300	0.834000
O1051	O105	0.350800	0.571500	0.800200
O1061	O106	0.206100	0.305300	0.180700
O1071	O107	0.350200	0.295460	0.199700
O1081	O108	0.205500	0.087850	0.117400
O1091	O109	0.448000	0.911910	0.241600
O1101	O110	0.461500	0.913380	0.151500
O1111	O111	0.176800	0.420210	0.173200
O1121	O112	0.308500	0.422590	0.160200
O1131	O113	0.187700	0.637770	0.123800
O1141	O114	0.443100	0.809020	0.237630
O1151	O115	0.457400	0.807150	0.148400
O1161	O116	0.348200	0.373100	0.279500
O1171	O117	0.216000	0.362610	0.288300
O1181	O118	0.444300	0.386700	0.558700
O1191	O119	0.391900	0.575360	0.686800
O1201	O120	0.528400	0.559150	0.740700
