data_VUKROK_clean_PM
_symmetry_space_group_name_H-M	'P1'
_cell_length_a	20.405100
_cell_length_b	16.496900
_cell_length_c	9.346900
_cell_angle_alpha	90.000000
_cell_angle_beta	94.122100
_cell_angle_gamma	90.000000
_symmetry_Int_Tables_number 1

loop_
_symmetry_equiv_pos_as_xyz
'x,y,z'

loop_
_atom_site_label
_atom_site_type_symbol
_atom_site_fract_x
_atom_site_fract_y
_atom_site_fract_z
O11	O1	0.311530	0.172960	0.408710
O21	O2	0.184910	0.169810	0.627290
O31	O3	0.184450	0.170900	0.388100
O41	O4	0.320590	0.175100	0.649220
C11	C1	0.158190	0.147830	0.503690
C21	C2	0.100370	0.097620	0.485810
C31	C3	0.066800	0.062040	0.598930
H11	H1	0.083220	0.075940	0.708530
C41	C4	0.394760	0.055750	0.377750
H21	H2	0.354400	0.068460	0.300690
C51	C5	0.977760	0.974450	0.681830
H31	H3	0.992860	0.988450	0.790950
C61	C6	0.011630	0.008790	0.570920
H41	H4	0.338280	0.302930	0.144220
H51	H5	0.341040	0.196600	0.894920
C71	C7	0.341820	0.150430	0.528330
C81	C8	0.396110	0.091750	0.514640
C91	C9	0.451740	0.073280	0.609050
H61	H6	0.456970	0.103170	0.712320
C101	C10	0.076880	0.076890	0.345680
H71	H7	0.101300	0.100460	0.256000
C111	C11	0.444840	0.003350	0.337060
H81	H8	0.443350	0.981400	0.229090
C121	C12	0.501730	0.017850	0.568550
C131	C13	0.211100	0.177730	0.080850
H91	H9	0.234590	0.121420	0.124700
H101	H10	0.159820	0.174980	0.110610
C141	C14	0.212100	0.178140	0.909650
H111	H11	0.160820	0.176800	0.863280
H121	H12	0.234560	0.121450	0.872360
O51	O5	0.688470	0.672960	0.591290
O61	O6	0.815090	0.669810	0.372710
O71	O7	0.815550	0.670900	0.611900
O81	O8	0.679410	0.675100	0.350780
C151	C15	0.841810	0.647830	0.496310
C161	C16	0.899630	0.597620	0.514190
C171	C17	0.933200	0.562040	0.401070
H131	H13	0.916780	0.575940	0.291470
C181	C18	0.605240	0.555750	0.622250
H141	H14	0.645600	0.568460	0.699310
C191	C19	0.022240	0.474450	0.318170
H151	H15	0.007140	0.488450	0.209050
C201	C20	0.988370	0.508790	0.429080
H161	H16	0.661720	0.802930	0.855780
H171	H17	0.658960	0.696600	0.105080
C211	C21	0.658180	0.650430	0.471670
C221	C22	0.603890	0.591750	0.485360
C231	C23	0.548260	0.573280	0.390950
H181	H18	0.543030	0.603170	0.287680
C241	C24	0.923120	0.576890	0.654320
H191	H19	0.898700	0.600460	0.744000
C251	C25	0.555160	0.503350	0.662940
H201	H20	0.556650	0.481400	0.770910
C261	C26	0.498270	0.517850	0.431450
C271	C27	0.788900	0.677730	0.919150
H211	H21	0.765410	0.621420	0.875300
H221	H22	0.840180	0.674980	0.889390
C281	C28	0.787900	0.678140	0.090350
H231	H23	0.839180	0.676800	0.136720
H241	H24	0.765440	0.621450	0.127640
O91	O9	0.688470	0.827040	0.591290
O101	O10	0.815090	0.830190	0.372710
O111	O11	0.815550	0.829100	0.611900
O121	O12	0.679410	0.824900	0.350780
C291	C29	0.841810	0.852170	0.496310
C301	C30	0.899630	0.902380	0.514190
C311	C31	0.933200	0.937960	0.401070
H251	H25	0.916780	0.924060	0.291470
C321	C32	0.605240	0.944250	0.622250
H261	H26	0.645600	0.931540	0.699310
C331	C33	0.022240	0.025550	0.318170
H271	H27	0.007140	0.011550	0.209050
C341	C34	0.988370	0.991210	0.429080
H281	H28	0.661720	0.697070	0.855780
H291	H29	0.658960	0.803400	0.105080
C351	C35	0.658180	0.849570	0.471670
C361	C36	0.603890	0.908250	0.485360
C371	C37	0.548260	0.926720	0.390950
H301	H30	0.543030	0.896830	0.287680
C381	C38	0.923120	0.923110	0.654320
H311	H31	0.898700	0.899540	0.744000
C391	C39	0.555160	0.996650	0.662940
H321	H32	0.556650	0.018600	0.770910
C401	C40	0.498270	0.982150	0.431450
C411	C41	0.788900	0.822270	0.919150
H331	H33	0.765410	0.878580	0.875300
H341	H34	0.840180	0.825020	0.889390
C421	C42	0.787900	0.821860	0.090350
H351	H35	0.839180	0.823200	0.136720
H361	H36	0.765440	0.878550	0.127640
O131	O13	0.311530	0.327040	0.408710
O141	O14	0.184910	0.330190	0.627290
O151	O15	0.184450	0.329100	0.388100
O161	O16	0.320590	0.324900	0.649220
C431	C43	0.158190	0.352170	0.503690
C441	C44	0.100370	0.402380	0.485810
C451	C45	0.066800	0.437960	0.598930
H371	H37	0.083220	0.424060	0.708530
C461	C46	0.394760	0.444250	0.377750
H381	H38	0.354400	0.431540	0.300690
C471	C47	0.977760	0.525550	0.681830
H391	H39	0.992860	0.511550	0.790950
C481	C48	0.011630	0.491210	0.570920
H401	H40	0.338280	0.197070	0.144220
H411	H41	0.341040	0.303400	0.894920
C491	C49	0.341820	0.349570	0.528330
C501	C50	0.396110	0.408250	0.514640
C511	C51	0.451740	0.426720	0.609050
H421	H42	0.456970	0.396830	0.712320
C521	C52	0.076880	0.423110	0.345680
H431	H43	0.101300	0.399540	0.256000
C531	C53	0.444840	0.496650	0.337060
H441	H44	0.443350	0.518600	0.229090
C541	C54	0.501730	0.482150	0.568550
C551	C55	0.211100	0.322270	0.080850
H451	H45	0.234590	0.378580	0.124700
H461	H46	0.159820	0.325020	0.110610
C561	C56	0.212100	0.321860	0.909650
H471	H47	0.160820	0.323200	0.863280
H481	H48	0.234560	0.378550	0.872360
Ni11	Ni1	0.251770	0.250000	0.637250
Ni21	Ni2	0.250090	0.250000	0.392370
N11	N1	0.246500	0.250000	0.851990
N21	N2	0.243620	0.250000	0.150640
C571	C57	0.311150	0.250000	0.099540
C581	C58	0.313010	0.250000	0.928410
Ni31	Ni3	0.748230	0.750000	0.362750
Ni41	Ni4	0.749910	0.750000	0.607630
N31	N3	0.753500	0.750000	0.148010
N41	N4	0.756380	0.750000	0.849360
C591	C59	0.688850	0.750000	0.900460
C601	C60	0.686990	0.750000	0.071590
