data_VUKSOL_clean_PM
_symmetry_space_group_name_H-M	'P1'
_cell_length_a	9.346800
_cell_length_b	15.226700
_cell_length_c	17.651700
_cell_angle_alpha	90.000000
_cell_angle_beta	95.599000
_cell_angle_gamma	90.000000
_symmetry_Int_Tables_number 1

loop_
_symmetry_equiv_pos_as_xyz
'x,y,z'

loop_
_atom_site_label
_atom_site_type_symbol
_atom_site_fract_x
_atom_site_fract_y
_atom_site_fract_z
Zn11	Zn1	0.927420	0.609630	0.337700
O11	O1	0.733200	0.569400	0.358800
O21	O2	0.803200	0.462200	0.441800
O31	O3	0.454700	0.537700	0.375200
O41	O4	0.203400	0.620300	0.327000
O51	O5	0.074900	0.523600	0.383500
O61	O6	0.941600	0.719200	0.398300
O71	O7	0.945700	0.643500	0.508400
O81	O8	0.916100	0.798800	0.585400
O91	O9	0.880200	0.984300	0.705700
O101	O10	0.910100	0.843400	0.733200
C11	C1	0.710600	0.504900	0.400400
C21	C2	0.558600	0.479700	0.403600
C31	C3	0.496500	0.406900	0.432600
H11	H1	0.543800	0.357800	0.454200
C41	C4	0.345100	0.421400	0.422900
H21	H2	0.274100	0.383700	0.437100
C51	C5	0.324800	0.500500	0.389000
C61	C6	0.195900	0.554300	0.364700
C71	C7	0.938200	0.711800	0.470800
C81	C8	0.916000	0.798600	0.507900
C91	C9	0.892400	0.880000	0.480000
H31	H3	0.886400	0.896500	0.429000
C101	C10	0.878500	0.935500	0.542600
H41	H4	0.862600	0.995800	0.540800
C111	C11	0.892200	0.886000	0.604400
C121	C12	0.895300	0.907400	0.686900
Zn21	Zn2	0.072580	0.109630	0.162300
O111	O11	0.266800	0.069400	0.141200
O121	O12	0.196800	0.962200	0.058200
O131	O13	0.545300	0.037700	0.124800
O141	O14	0.796600	0.120300	0.173000
O151	O15	0.925100	0.023600	0.116500
O161	O16	0.058400	0.219200	0.101700
O171	O17	0.054300	0.143500	0.991600
O181	O18	0.083900	0.298800	0.914600
O191	O19	0.119800	0.484300	0.794300
O201	O20	0.089900	0.343400	0.766800
C131	C13	0.289400	0.004900	0.099600
C141	C14	0.441400	0.979700	0.096400
C151	C15	0.503500	0.906900	0.067400
H51	H5	0.456200	0.857800	0.045800
C161	C16	0.654900	0.921400	0.077100
H61	H6	0.725900	0.883700	0.062900
C171	C17	0.675200	0.000500	0.111000
C181	C18	0.804100	0.054300	0.135300
C191	C19	0.061800	0.211800	0.029200
C201	C20	0.084000	0.298600	0.992100
C211	C21	0.107600	0.380000	0.020000
H71	H7	0.113600	0.396500	0.071000
C221	C22	0.121500	0.435500	0.957400
H81	H8	0.137400	0.495800	0.959200
C231	C23	0.107800	0.386000	0.895600
C241	C24	0.104700	0.407400	0.813100
Zn31	Zn3	0.072580	0.390370	0.662300
O211	O21	0.266800	0.430600	0.641200
O221	O22	0.196800	0.537800	0.558200
O231	O23	0.545300	0.462300	0.624800
O241	O24	0.796600	0.379700	0.673000
O251	O25	0.925100	0.476400	0.616500
O261	O26	0.058400	0.280800	0.601700
O271	O27	0.054300	0.356500	0.491600
O281	O28	0.083900	0.201200	0.414600
O291	O29	0.119800	0.015700	0.294300
O301	O30	0.089900	0.156600	0.266800
C251	C25	0.289400	0.495100	0.599600
C261	C26	0.441400	0.520300	0.596400
C271	C27	0.503500	0.593100	0.567400
H91	H9	0.456200	0.642200	0.545800
C281	C28	0.654900	0.578600	0.577100
H101	H10	0.725900	0.616300	0.562900
C291	C29	0.675200	0.499500	0.611000
C301	C30	0.804100	0.445700	0.635300
C311	C31	0.061800	0.288200	0.529200
C321	C32	0.084000	0.201400	0.492100
C331	C33	0.107600	0.120000	0.520000
H111	H11	0.113600	0.103500	0.571000
C341	C34	0.121500	0.064500	0.457400
H121	H12	0.137400	0.004200	0.459200
C351	C35	0.107800	0.114000	0.395600
C361	C36	0.104700	0.092600	0.313100
Zn41	Zn4	0.927420	0.890370	0.837700
O311	O31	0.733200	0.930600	0.858800
O321	O32	0.803200	0.037800	0.941800
O331	O33	0.454700	0.962300	0.875200
O341	O34	0.203400	0.879700	0.827000
O351	O35	0.074900	0.976400	0.883500
O361	O36	0.941600	0.780800	0.898300
O371	O37	0.945700	0.856500	0.008400
O381	O38	0.916100	0.701200	0.085400
O391	O39	0.880200	0.515700	0.205700
O401	O40	0.910100	0.656600	0.233200
C371	C37	0.710600	0.995100	0.900400
C381	C38	0.558600	0.020300	0.903600
C391	C39	0.496500	0.093100	0.932600
H131	H13	0.543800	0.142200	0.954200
C401	C40	0.345100	0.078600	0.922900
H141	H14	0.274100	0.116300	0.937100
C411	C41	0.324800	0.999500	0.889000
C421	C42	0.195900	0.945700	0.864700
C431	C43	0.938200	0.788200	0.970800
C441	C44	0.916000	0.701400	0.007900
C451	C45	0.892400	0.620000	0.980000
H151	H15	0.886400	0.603500	0.929000
C461	C46	0.878500	0.564500	0.042600
H161	H16	0.862600	0.504200	0.040800
C471	C47	0.892200	0.614000	0.104400
C481	C48	0.895300	0.592600	0.186900
Zn51	Zn5	0.000000	0.500000	0.500000
Zn61	Zn6	0.000000	0.000000	0.000000
