data_VUKTIG_clean_PM
_symmetry_space_group_name_H-M	'P1'
_cell_length_a	14.626000
_cell_length_b	15.297000
_cell_length_c	23.009000
_cell_angle_alpha	84.817000
_cell_angle_beta	83.605000
_cell_angle_gamma	86.488000
_symmetry_Int_Tables_number 1

loop_
_symmetry_equiv_pos_as_xyz
'x,y,z'

loop_
_atom_site_label
_atom_site_type_symbol
_atom_site_fract_x
_atom_site_fract_y
_atom_site_fract_z
Gd11	Gd1	0.182420	0.870770	0.717790
Gd21	Gd2	0.209640	0.119460	0.759790
Gd31	Gd3	0.329850	0.332780	0.772770
Gd41	Gd4	0.293430	0.597710	0.764500
O11	O1	0.240700	0.020200	0.679990
C11	C1	0.213200	0.077600	0.640700
C21	C2	0.243500	0.064900	0.577900
C31	C3	0.320600	0.011300	0.563100
H11	H1	0.352100	0.982200	0.592700
C41	C4	0.195700	0.106100	0.533600
H21	H2	0.143700	0.142200	0.543100
C51	C5	0.302000	0.040600	0.461600
C61	C6	0.351600	0.000200	0.505000
H31	H3	0.405100	0.966100	0.495400
C71	C7	0.224000	0.094200	0.475700
H41	H4	0.191200	0.121900	0.446300
O21	O2	0.327200	0.032600	0.402300
O31	O3	0.260300	0.450800	0.714090
O41	O4	0.325500	0.565300	0.663600
O51	O5	0.309800	0.305900	0.462600
C81	C8	0.297200	0.443500	0.611400
C91	C9	0.292700	0.490200	0.665200
C101	C10	0.243700	0.372600	0.608800
H51	H5	0.203500	0.355100	0.641400
C111	C11	0.307700	0.352200	0.511900
C121	C12	0.248000	0.327700	0.559900
H61	H6	0.210600	0.280800	0.559100
C131	C13	0.354900	0.469400	0.561800
H71	H7	0.390000	0.518100	0.561800
C141	C14	0.360900	0.423500	0.512100
H81	H8	0.400600	0.440700	0.479200
C151	C15	0.476000	0.517400	0.762400
C161	C16	0.581100	0.456900	0.681300
H91	H9	0.530700	0.431300	0.669800
C171	C17	0.646000	0.537500	0.749400
H101	H10	0.639000	0.568000	0.782900
C181	C18	0.665200	0.450800	0.648000
H111	H11	0.672000	0.421500	0.614000
C191	C19	0.739500	0.489000	0.666000
C201	C20	0.570900	0.501300	0.732200
C211	C21	0.731100	0.529900	0.718300
H121	H12	0.782300	0.551500	0.731700
O61	O6	0.415000	0.463400	0.761800
O71	O7	0.455600	0.589800	0.785200
O81	O8	0.820800	0.483100	0.628700
O91	O9	0.022100	0.902600	0.758200
O101	O10	0.113700	0.000400	0.781350
O111	O11	0.736200	0.086500	0.941700
C221	C22	0.032700	0.967100	0.786100
C231	C23	0.899300	0.088200	0.907500
H131	H13	0.910300	0.126400	0.934900
C241	C24	0.958000	0.001600	0.827200
C251	C25	0.812100	0.060400	0.906000
C261	C26	0.796100	0.001700	0.864700
H141	H14	0.737400	0.982100	0.863400
C271	C27	0.971300	0.059000	0.867700
H151	H15	0.029900	0.079000	0.868600
C281	C28	0.869700	0.973700	0.826000
H161	H16	0.859600	0.935300	0.798600
C291	C29	0.749100	0.122600	0.993900
C301	C30	0.248300	0.166300	0.873500
C311	C31	0.275500	0.172400	0.932500
C321	C32	0.322200	0.184000	0.044500
C331	C33	0.208100	0.168800	0.981300
H171	H17	0.146900	0.161900	0.975900
C341	C34	0.365100	0.180800	0.941600
H181	H18	0.410000	0.182700	0.909600
C351	C35	0.391400	0.186600	0.997700
H191	H19	0.452700	0.192000	0.003500
O121	O12	0.301400	0.195800	0.828100
O131	O13	0.175900	0.130300	0.865890
C361	C36	0.232100	0.175600	0.036800
H201	H20	0.187300	0.174400	0.068900
O141	O14	0.238600	0.504100	0.842900
O151	O15	0.301400	0.373600	0.867700
C371	C37	0.273500	0.401300	0.985600
H211	H21	0.309200	0.352200	0.974000
C381	C38	0.239900	0.460700	0.944100
C391	C39	0.261900	0.445200	0.880500
C401	C40	0.187600	0.533200	0.961200
H221	H22	0.165200	0.574200	0.933200
O161	O16	0.186600	0.492500	0.121500
C411	C41	0.254900	0.413400	0.044900
H231	H23	0.278100	0.373000	0.072900
O171	O17	0.169000	0.144700	0.656340
O181	O18	0.341200	0.196800	0.101100
C421	C42	0.459700	0.079800	0.109700
H241	H24	0.435300	0.047600	0.083200
C431	C43	0.420500	0.160900	0.122400
C441	C44	0.571200	0.092600	0.178000
C451	C45	0.531900	0.175300	0.188500
H251	H25	0.556600	0.208300	0.214500
C461	C46	0.535500	0.046900	0.136700
H261	H26	0.563500	0.993100	0.127200
C471	C47	0.650200	0.056100	0.208000
O191	O19	0.682500	0.103900	0.242500
C481	C48	0.455900	0.209700	0.160700
H271	H27	0.429600	0.265000	0.168100
O201	O20	0.681400	0.979400	0.200500
C491	C49	0.031400	0.619300	0.679200
C501	C50	0.031200	0.527800	0.689200
H281	H28	0.077600	0.497100	0.708200
C511	C51	0.964400	0.663400	0.647400
H291	H29	0.966500	0.723700	0.638000
C521	C52	0.962000	0.482900	0.670700
H301	H30	0.961400	0.422000	0.677100
C531	C53	0.097500	0.668200	0.704800
O211	O21	0.148400	0.625400	0.741800
O221	O22	0.106100	0.749400	0.691800
C541	C54	0.893900	0.530000	0.642600
C551	C55	0.806700	0.113600	0.086700
H311	H31	0.840900	0.083300	0.114600
C561	C56	0.797000	0.076300	0.036000
H321	H32	0.822600	0.020300	0.030100
C571	C57	0.766100	0.196000	0.097100
C581	C58	0.716900	0.240800	0.055100
H331	H33	0.689300	0.296000	0.061400
C591	C59	0.708400	0.203800	0.003600
H341	H34	0.675000	0.234100	0.975300
C601	C60	0.396800	0.286500	0.433600
C611	C61	0.409200	0.303600	0.373800
H351	H35	0.360300	0.327200	0.353800
C621	C62	0.565500	0.248200	0.372400
C631	C63	0.493000	0.286300	0.343600
H361	H36	0.501500	0.300100	0.303200
C641	C64	0.549800	0.227600	0.433200
H371	H37	0.597000	0.200300	0.453400
C651	C65	0.465300	0.247300	0.463500
H381	H38	0.455500	0.233900	0.503800
C661	C66	0.896000	0.619000	0.630100
H391	H39	0.850700	0.649100	0.609700
C671	C67	0.777800	0.236800	0.153400
O231	O23	0.729900	0.307200	0.162410
O241	O24	0.831100	0.199000	0.187700
C681	C68	0.657800	0.229400	0.340500
O251	O25	0.712200	0.171700	0.363200
O261	O26	0.679100	0.266400	0.289690
C691	C69	0.201800	0.485900	0.061600
C701	C70	0.168300	0.545200	0.020200
H401	H40	0.132200	0.594000	0.031700
C711	C71	0.118200	0.550800	0.143300
C721	C72	0.072100	0.685400	0.185000
H411	H41	0.087200	0.739100	0.196300
C731	C73	0.140500	0.629000	0.159600
H421	H42	0.201300	0.645000	0.153700
C741	C74	0.029300	0.528000	0.150000
H431	H43	0.014500	0.475100	0.137200
C751	C75	0.982600	0.661100	0.193200
C761	C76	0.910800	0.723900	0.220200
C771	C77	0.959400	0.583200	0.176000
H441	H44	0.898600	0.567000	0.181300
O271	O27	0.934600	0.796800	0.232900
O281	O28	0.827300	0.706300	0.228500
C781	C78	0.471900	0.994000	0.353500
H451	H45	0.482300	0.053400	0.345700
C791	C79	0.392900	0.967500	0.385000
C801	C80	0.377000	0.879600	0.397600
H461	H46	0.323100	0.862200	0.419800
C811	C81	0.523500	0.843100	0.344400
C821	C82	0.537000	0.930700	0.332900
H471	H47	0.590900	0.948500	0.310900
C831	C83	0.443600	0.816800	0.376300
H481	H48	0.433500	0.757300	0.383900
C841	C84	0.591300	0.776300	0.318100
O291	O29	0.570800	0.697000	0.318900
O301	O30	0.666400	0.800800	0.289640
Gd51	Gd5	0.817580	0.129230	0.282210
Gd61	Gd6	0.790360	0.880540	0.240210
Gd71	Gd7	0.670150	0.667220	0.227230
Gd81	Gd8	0.706570	0.402290	0.235500
O311	O31	0.759300	0.979800	0.320010
C851	C85	0.786800	0.922400	0.359300
C861	C86	0.756500	0.935100	0.422100
C871	C87	0.679400	0.988700	0.436900
H491	H49	0.647900	0.017800	0.407300
C881	C88	0.804300	0.893900	0.466400
H501	H50	0.856300	0.857800	0.456900
C891	C89	0.698000	0.959400	0.538400
C901	C90	0.648400	0.999800	0.495000
H511	H51	0.594900	0.033900	0.504600
C911	C91	0.776000	0.905800	0.524300
H521	H52	0.808800	0.878100	0.553700
O321	O32	0.672800	0.967400	0.597700
O331	O33	0.739700	0.549200	0.285910
O341	O34	0.674500	0.434700	0.336400
O351	O35	0.690200	0.694100	0.537400
C921	C92	0.702800	0.556500	0.388600
C931	C93	0.707300	0.509800	0.334800
C941	C94	0.756300	0.627400	0.391200
H531	H53	0.796500	0.644900	0.358600
C951	C95	0.692300	0.647800	0.488100
C961	C96	0.752000	0.672300	0.440100
H541	H54	0.789400	0.719200	0.440900
C971	C97	0.645100	0.530600	0.438200
H551	H55	0.610000	0.481900	0.438200
C981	C98	0.639100	0.576500	0.487900
H561	H56	0.599400	0.559300	0.520800
C991	C99	0.524000	0.482600	0.237600
C1001	C100	0.418900	0.543100	0.318700
H571	H57	0.469300	0.568700	0.330200
C1011	C101	0.354000	0.462500	0.250600
H581	H58	0.361000	0.432000	0.217100
C1021	C102	0.334800	0.549200	0.352000
H591	H59	0.328000	0.578500	0.386000
C1031	C103	0.260500	0.511000	0.334000
C1041	C104	0.429100	0.498700	0.267800
C1051	C105	0.268900	0.470100	0.281700
H601	H60	0.217700	0.448500	0.268300
O361	O36	0.585000	0.536600	0.238200
O371	O37	0.544400	0.410200	0.214800
O381	O38	0.179200	0.516900	0.371300
O391	O39	0.977900	0.097400	0.241800
O401	O40	0.886300	0.999600	0.218650
O411	O41	0.263800	0.913500	0.058300
C1061	C106	0.967300	0.032900	0.213900
C1071	C107	0.100700	0.911800	0.092500
H611	H61	0.089700	0.873600	0.065100
C1081	C108	0.042000	0.998400	0.172800
C1091	C109	0.187900	0.939600	0.094000
C1101	C110	0.203900	0.998300	0.135300
H621	H62	0.262600	0.017900	0.136600
C1111	C111	0.028700	0.941000	0.132300
H631	H63	0.970100	0.921000	0.131400
C1121	C112	0.130300	0.026300	0.174000
H641	H64	0.140400	0.064700	0.201400
C1131	C113	0.250900	0.877400	0.006100
C1141	C114	0.751700	0.833700	0.126500
C1151	C115	0.724500	0.827600	0.067500
C1161	C116	0.677800	0.816000	0.955500
C1171	C117	0.791900	0.831200	0.018700
H651	H65	0.853100	0.838100	0.024100
C1181	C118	0.634900	0.819200	0.058400
H661	H66	0.590000	0.817300	0.090400
C1191	C119	0.608600	0.813400	0.002300
H671	H67	0.547300	0.808000	0.996500
O421	O42	0.698600	0.804200	0.171900
O431	O43	0.824100	0.869700	0.134110
C1201	C120	0.767900	0.824400	0.963200
H681	H68	0.812700	0.825600	0.931100
O441	O44	0.761400	0.495900	0.157100
O451	O45	0.698600	0.626400	0.132300
C1211	C121	0.726500	0.598700	0.014400
H691	H69	0.690800	0.647800	0.026000
C1221	C122	0.760100	0.539300	0.055900
C1231	C123	0.738100	0.554800	0.119500
C1241	C124	0.812400	0.466800	0.038800
H701	H70	0.834800	0.425800	0.066800
O461	O46	0.813400	0.507500	0.878500
C1251	C125	0.745100	0.586600	0.955100
H711	H71	0.721900	0.627000	0.927100
O471	O47	0.831000	0.855300	0.343660
O481	O48	0.658800	0.803200	0.898900
C1261	C126	0.540300	0.920200	0.890300
H721	H72	0.564700	0.952400	0.916800
C1271	C127	0.579500	0.839100	0.877600
C1281	C128	0.428800	0.907400	0.822000
C1291	C129	0.468100	0.824700	0.811500
H731	H73	0.443400	0.791700	0.785500
C1301	C130	0.464500	0.953100	0.863300
H741	H74	0.436500	0.006900	0.872800
C1311	C131	0.349800	0.943900	0.792000
O491	O49	0.317500	0.896100	0.757500
C1321	C132	0.544100	0.790300	0.839300
H751	H75	0.570400	0.735000	0.831900
O501	O50	0.318600	0.020600	0.799500
C1331	C133	0.968600	0.380700	0.320800
C1341	C134	0.968800	0.472200	0.310800
H761	H76	0.922400	0.502900	0.291800
C1351	C135	0.035600	0.336600	0.352600
H771	H77	0.033500	0.276300	0.362000
C1361	C136	0.038000	0.517100	0.329300
H781	H78	0.038600	0.578000	0.322900
C1371	C137	0.902500	0.331800	0.295200
O511	O51	0.851600	0.374600	0.258200
O521	O52	0.893900	0.250600	0.308200
C1381	C138	0.106100	0.470000	0.357400
C1391	C139	0.193300	0.886400	0.913300
H791	H79	0.159100	0.916700	0.885400
C1401	C140	0.203000	0.923700	0.964000
H801	H80	0.177400	0.979700	0.969900
C1411	C141	0.233900	0.804000	0.902900
C1421	C142	0.283100	0.759200	0.944900
H811	H81	0.310700	0.704000	0.938600
C1431	C143	0.291600	0.796200	0.996400
H821	H82	0.325000	0.765900	0.024700
C1441	C144	0.603200	0.713500	0.566400
C1451	C145	0.590800	0.696400	0.626200
H831	H83	0.639700	0.672800	0.646200
C1461	C146	0.434500	0.751800	0.627600
C1471	C147	0.507000	0.713700	0.656400
H841	H84	0.498500	0.699900	0.696800
C1481	C148	0.450200	0.772400	0.566800
H851	H85	0.403000	0.799700	0.546600
C1491	C149	0.534700	0.752700	0.536500
H861	H86	0.544500	0.766100	0.496200
C1501	C150	0.104000	0.381000	0.369900
H871	H87	0.149300	0.350900	0.390300
C1511	C151	0.222200	0.763200	0.846600
O531	O53	0.270100	0.692800	0.837590
O541	O54	0.168900	0.801000	0.812300
C1521	C152	0.342200	0.770600	0.659500
O551	O55	0.287800	0.828300	0.636800
O561	O56	0.320900	0.733600	0.710310
C1531	C153	0.798200	0.514100	0.938400
C1541	C154	0.831700	0.454800	0.979800
H881	H88	0.867800	0.406000	0.968300
C1551	C155	0.881800	0.449200	0.856700
C1561	C156	0.927900	0.314600	0.815000
H891	H89	0.912800	0.260900	0.803700
C1571	C157	0.859500	0.371000	0.840400
H901	H90	0.798700	0.355000	0.846300
C1581	C158	0.970700	0.472000	0.850000
H911	H91	0.985500	0.524900	0.862800
C1591	C159	0.017400	0.338900	0.806800
C1601	C160	0.089200	0.276100	0.779800
C1611	C161	0.040600	0.416800	0.824000
H921	H92	0.101400	0.433000	0.818700
O571	O57	0.065400	0.203200	0.767100
O581	O58	0.172700	0.293700	0.771500
C1621	C162	0.528100	0.006000	0.646500
H931	H93	0.517700	0.946600	0.654300
C1631	C163	0.607100	0.032500	0.615000
C1641	C164	0.623000	0.120400	0.602400
H941	H94	0.676900	0.137800	0.580200
C1651	C165	0.476500	0.156900	0.655600
C1661	C166	0.463000	0.069300	0.667100
H951	H95	0.409100	0.051500	0.689100
C1671	C167	0.556400	0.183200	0.623700
H961	H96	0.566500	0.242700	0.616100
C1681	C168	0.408700	0.223700	0.681900
O591	O59	0.429200	0.303000	0.681100
O601	O60	0.333600	0.199200	0.710360
