data_VULKOD_clean_PM
_symmetry_space_group_name_H-M	'P1'
_cell_length_a	7.654800
_cell_length_b	20.149100
_cell_length_c	25.641300
_cell_angle_alpha	90.000000
_cell_angle_beta	90.000000
_cell_angle_gamma	90.000000
_symmetry_Int_Tables_number 1

loop_
_symmetry_equiv_pos_as_xyz
'x,y,z'

loop_
_atom_site_label
_atom_site_type_symbol
_atom_site_fract_x
_atom_site_fract_y
_atom_site_fract_z
Mn11	Mn1	0.741150	0.819440	0.840120
Mn21	Mn2	0.258850	0.680560	0.340120
Mn31	Mn3	0.241150	0.180560	0.659880
Mn41	Mn4	0.758850	0.319440	0.159880
Mn51	Mn5	0.258850	0.180560	0.159880
Mn61	Mn6	0.741150	0.319440	0.659880
Mn71	Mn7	0.758850	0.819440	0.340120
Mn81	Mn8	0.241150	0.680560	0.840120
H11	H1	0.341200	0.908700	0.983900
H21	H2	0.731300	0.033500	0.953300
H31	H3	0.811300	0.965300	0.886300
H41	H4	0.425100	0.847600	0.913200
H51	H5	0.417200	0.606900	0.214300
H61	H6	0.413000	0.602300	0.968600
H71	H7	0.658800	0.591300	0.483900
H81	H8	0.268700	0.466500	0.453300
H91	H9	0.188700	0.534700	0.386300
H101	H10	0.574900	0.652400	0.413200
H111	H11	0.582800	0.893100	0.714300
H121	H12	0.587000	0.897700	0.468600
H131	H13	0.841200	0.091300	0.516100
H141	H14	0.231300	0.966500	0.546700
H151	H15	0.311300	0.034700	0.613700
H161	H16	0.925100	0.152400	0.586800
H171	H17	0.917200	0.393100	0.285700
H181	H18	0.913000	0.397700	0.531400
H191	H19	0.158800	0.408700	0.016100
H201	H20	0.768700	0.533500	0.046700
H211	H21	0.688700	0.465300	0.113700
H221	H22	0.074900	0.347600	0.086800
H231	H23	0.082800	0.106900	0.785700
H241	H24	0.087000	0.102300	0.031400
H251	H25	0.658800	0.091300	0.016100
H261	H26	0.268700	0.966500	0.046700
H271	H27	0.188700	0.034700	0.113700
H281	H28	0.574900	0.152400	0.086800
H291	H29	0.582800	0.393100	0.785700
H301	H30	0.587000	0.397700	0.031400
H311	H31	0.341200	0.408700	0.516100
H321	H32	0.731300	0.533500	0.546700
H331	H33	0.811300	0.465300	0.613700
H341	H34	0.425100	0.347600	0.586800
H351	H35	0.417200	0.106900	0.285700
H361	H36	0.413000	0.102300	0.531400
H371	H37	0.158800	0.908700	0.483900
H381	H38	0.768700	0.033500	0.453300
H391	H39	0.688700	0.965300	0.386300
H401	H40	0.074900	0.847600	0.413200
H411	H41	0.082800	0.606900	0.714300
H421	H42	0.087000	0.602300	0.468600
H431	H43	0.841200	0.591300	0.983900
H441	H44	0.231300	0.466500	0.953300
H451	H45	0.311300	0.534700	0.886300
H461	H46	0.925100	0.652400	0.913200
H471	H47	0.917200	0.893100	0.214300
H481	H48	0.913000	0.897700	0.968600
C11	C1	0.526200	0.979260	0.977260
C21	C2	0.437100	0.922070	0.964290
C31	C3	0.667600	0.995160	0.946670
C41	C4	0.714300	0.953800	0.906140
C51	C5	0.490700	0.884750	0.922110
C61	C6	0.587700	0.710470	0.269370
C71	C7	0.563400	0.691100	0.213820
C81	C8	0.474200	0.638500	0.194050
C91	C9	0.478700	0.637810	0.139190
C101	C10	0.572400	0.689890	0.117720
C111	C11	0.572500	0.689020	0.062400
C121	C12	0.477900	0.636050	0.042710
C131	C13	0.470900	0.634720	0.987810
C141	C14	0.559200	0.686620	0.966260
C151	C15	0.578200	0.703730	0.909740
C161	C16	0.473800	0.520740	0.477260
C171	C17	0.562900	0.577930	0.464290
C181	C18	0.332400	0.504840	0.446670
C191	C19	0.285700	0.546200	0.406140
C201	C20	0.509300	0.615250	0.422110
C211	C21	0.412300	0.789530	0.769370
C221	C22	0.436600	0.808900	0.713820
C231	C23	0.525800	0.861500	0.694050
C241	C24	0.521300	0.862190	0.639190
C251	C25	0.427600	0.810110	0.617720
C261	C26	0.427500	0.810980	0.562400
C271	C27	0.522100	0.863950	0.542710
C281	C28	0.529100	0.865280	0.487810
C291	C29	0.440800	0.813380	0.466260
C301	C30	0.421800	0.796270	0.409740
C311	C31	0.026200	0.020740	0.522740
C321	C32	0.937100	0.077930	0.535710
C331	C33	0.167600	0.004840	0.553330
C341	C34	0.214300	0.046200	0.593860
C351	C35	0.990700	0.115250	0.577890
C361	C36	0.087700	0.289530	0.230630
C371	C37	0.063400	0.308900	0.286180
C381	C38	0.974200	0.361500	0.305950
C391	C39	0.978700	0.362190	0.360810
C401	C40	0.072400	0.310110	0.382280
C411	C41	0.072500	0.310980	0.437600
C421	C42	0.977900	0.363950	0.457290
C431	C43	0.970900	0.365280	0.512190
C441	C44	0.059200	0.313380	0.533740
C451	C45	0.078200	0.296270	0.590260
C461	C46	0.973800	0.479260	0.022740
C471	C47	0.062900	0.422070	0.035710
C481	C48	0.832400	0.495160	0.053330
C491	C49	0.785700	0.453800	0.093860
C501	C50	0.009300	0.384750	0.077890
C511	C51	0.912300	0.210470	0.730630
C521	C52	0.936600	0.191100	0.786180
C531	C53	0.025800	0.138500	0.805950
C541	C54	0.021300	0.137810	0.860810
C551	C55	0.927600	0.189890	0.882280
C561	C56	0.927500	0.189020	0.937600
C571	C57	0.022100	0.136050	0.957290
C581	C58	0.029100	0.134720	0.012190
C591	C59	0.940800	0.186620	0.033740
C601	C60	0.921800	0.203730	0.090260
C611	C61	0.473800	0.020740	0.022740
C621	C62	0.562900	0.077930	0.035710
C631	C63	0.332400	0.004840	0.053330
C641	C64	0.285700	0.046200	0.093860
C651	C65	0.509300	0.115250	0.077890
C661	C66	0.412300	0.289530	0.730630
C671	C67	0.436600	0.308900	0.786180
C681	C68	0.525800	0.361500	0.805950
C691	C69	0.521300	0.362190	0.860810
C701	C70	0.427600	0.310110	0.882280
C711	C71	0.427500	0.310980	0.937600
C721	C72	0.522100	0.363950	0.957290
C731	C73	0.529100	0.365280	0.012190
C741	C74	0.440800	0.313380	0.033740
C751	C75	0.421800	0.296270	0.090260
C761	C76	0.526200	0.479260	0.522740
C771	C77	0.437100	0.422070	0.535710
C781	C78	0.667600	0.495160	0.553330
C791	C79	0.714300	0.453800	0.593860
C801	C80	0.490700	0.384750	0.577890
C811	C81	0.587700	0.210470	0.230630
C821	C82	0.563400	0.191100	0.286180
C831	C83	0.474200	0.138500	0.305950
C841	C84	0.478700	0.137810	0.360810
C851	C85	0.572400	0.189890	0.382280
C861	C86	0.572500	0.189020	0.437600
C871	C87	0.477900	0.136050	0.457290
C881	C88	0.470900	0.134720	0.512190
C891	C89	0.559200	0.186620	0.533740
C901	C90	0.578200	0.203730	0.590260
C911	C91	0.973800	0.979260	0.477260
C921	C92	0.062900	0.922070	0.464290
C931	C93	0.832400	0.995160	0.446670
C941	C94	0.785700	0.953800	0.406140
C951	C95	0.009300	0.884750	0.422110
C961	C96	0.912300	0.710470	0.769370
C971	C97	0.936600	0.691100	0.713820
C981	C98	0.025800	0.638500	0.694050
C991	C99	0.021300	0.637810	0.639190
C1001	C100	0.927600	0.689890	0.617720
C1011	C101	0.927500	0.689020	0.562400
C1021	C102	0.022100	0.636050	0.542710
C1031	C103	0.029100	0.634720	0.487810
C1041	C104	0.940800	0.686620	0.466260
C1051	C105	0.921800	0.703730	0.409740
C1061	C106	0.026200	0.520740	0.977260
C1071	C107	0.937100	0.577930	0.964290
C1081	C108	0.167600	0.504840	0.946670
C1091	C109	0.214300	0.546200	0.906140
C1101	C110	0.990700	0.615250	0.922110
C1111	C111	0.087700	0.789530	0.269370
C1121	C112	0.063400	0.808900	0.213820
C1131	C113	0.974200	0.861500	0.194050
C1141	C114	0.978700	0.862190	0.139190
C1151	C115	0.072400	0.810110	0.117720
C1161	C116	0.072500	0.810980	0.062400
C1171	C117	0.977900	0.863950	0.042710
C1181	C118	0.970900	0.865280	0.987810
C1191	C119	0.059200	0.813380	0.966260
C1201	C120	0.078200	0.796270	0.909740
S11	S1	0.656250	0.740540	0.165680
S21	S2	0.388630	0.586110	0.091470
S31	S3	0.655330	0.737520	0.012900
S41	S4	0.343750	0.759460	0.665680
S51	S5	0.611370	0.913890	0.591470
S61	S6	0.344670	0.762480	0.512900
S71	S7	0.156250	0.259460	0.334320
S81	S8	0.888630	0.413890	0.408530
S91	S9	0.155330	0.262480	0.487100
S101	S10	0.843750	0.240540	0.834320
S111	S11	0.111370	0.086110	0.908530
S121	S12	0.844670	0.237520	0.987100
S131	S13	0.343750	0.259460	0.834320
S141	S14	0.611370	0.413890	0.908530
S151	S15	0.344670	0.262480	0.987100
S161	S16	0.656250	0.240540	0.334320
S171	S17	0.388630	0.086110	0.408530
S181	S18	0.655330	0.237520	0.487100
S191	S19	0.843750	0.740540	0.665680
S201	S20	0.111370	0.586110	0.591470
S211	S21	0.844670	0.737520	0.512900
S221	S22	0.156250	0.759460	0.165680
S231	S23	0.888630	0.913890	0.091470
S241	S24	0.155330	0.762480	0.012900
N11	N1	0.629500	0.898700	0.893780
N21	N2	0.370500	0.601300	0.393780
N31	N3	0.129500	0.101300	0.606220
N41	N4	0.870500	0.398700	0.106220
N51	N5	0.370500	0.101300	0.106220
N61	N6	0.629500	0.398700	0.606220
N71	N7	0.870500	0.898700	0.393780
N81	N8	0.129500	0.601300	0.893780
O11	O1	0.515600	0.676270	0.303870
O21	O2	0.682300	0.760570	0.276310
O31	O3	0.679700	0.750670	0.900290
O41	O4	0.494400	0.669840	0.877490
O51	O5	0.484400	0.823730	0.803870
O61	O6	0.317700	0.739430	0.776310
O71	O7	0.320300	0.749330	0.400290
O81	O8	0.505600	0.830160	0.377490
O91	O9	0.015600	0.323730	0.196130
O101	O10	0.182300	0.239430	0.223690
O111	O11	0.179700	0.249330	0.599710
O121	O12	0.994400	0.330160	0.622510
O131	O13	0.984400	0.176270	0.696130
O141	O14	0.817700	0.260570	0.723690
O151	O15	0.820300	0.250670	0.099710
O161	O16	0.005600	0.169840	0.122510
O171	O17	0.484400	0.323730	0.696130
O181	O18	0.317700	0.239430	0.723690
O191	O19	0.320300	0.249330	0.099710
O201	O20	0.505600	0.330160	0.122510
O211	O21	0.515600	0.176270	0.196130
O221	O22	0.682300	0.260570	0.223690
O231	O23	0.679700	0.250670	0.599710
O241	O24	0.494400	0.169840	0.622510
O251	O25	0.984400	0.676270	0.803870
O261	O26	0.817700	0.760570	0.776310
O271	O27	0.820300	0.750670	0.400290
O281	O28	0.005600	0.669840	0.377490
O291	O29	0.015600	0.823730	0.303870
O301	O30	0.182300	0.739430	0.276310
O311	O31	0.179700	0.749330	0.900290
O321	O32	0.994400	0.830160	0.877490
