data_VULKIX_clean_PM
_symmetry_space_group_name_H-M	'P1'
_cell_length_a	11.031100
_cell_length_b	11.519700
_cell_length_c	14.782100
_cell_angle_alpha	112.933000
_cell_angle_beta	101.698000
_cell_angle_gamma	90.000000
_symmetry_Int_Tables_number 1

loop_
_symmetry_equiv_pos_as_xyz
'x,y,z'

loop_
_atom_site_label
_atom_site_type_symbol
_atom_site_fract_x
_atom_site_fract_y
_atom_site_fract_z
Mn11	Mn1	0.084600	0.129200	0.005080
Mn21	Mn2	0.415400	0.124120	0.994920
Mn31	Mn3	0.915400	0.870800	0.994920
Mn41	Mn4	0.584600	0.875880	0.005080
H11	H1	0.921100	0.139300	0.279200
H21	H2	0.979700	0.214700	0.732800
H31	H3	0.578900	0.860100	0.720800
H41	H4	0.520300	0.481900	0.267200
H51	H5	0.078900	0.860700	0.720800
H61	H6	0.020300	0.785300	0.267200
H71	H7	0.421100	0.139900	0.279200
H81	H8	0.479700	0.518100	0.732800
C11	C1	0.119500	0.039100	0.179200
C21	C2	0.093820	0.077420	0.280440
C31	C3	0.992820	0.124220	0.317040
C41	C4	0.125550	0.117550	0.459900
C51	C5	0.010910	0.147110	0.420820
C61	C6	0.139750	0.136550	0.562700
C71	C7	0.035050	0.177050	0.598700
C81	C8	0.043080	0.189880	0.698160
C91	C9	0.155550	0.161250	0.737100
C101	C10	0.197930	0.158930	0.838660
C111	C11	0.380500	0.859900	0.820800
C121	C12	0.406180	0.796980	0.719560
C131	C13	0.507180	0.807180	0.682960
C141	C14	0.374450	0.657650	0.540100
C151	C15	0.489090	0.726290	0.579180
C161	C16	0.360250	0.573850	0.437300
C171	C17	0.464950	0.578350	0.401300
C181	C18	0.456920	0.491720	0.301840
C191	C19	0.344450	0.424150	0.262900
C201	C20	0.302070	0.320270	0.161340
C211	C21	0.880500	0.960900	0.820800
C221	C22	0.906180	0.922580	0.719560
C231	C23	0.007180	0.875780	0.682960
C241	C24	0.874450	0.882450	0.540100
C251	C25	0.989090	0.852890	0.579180
C261	C26	0.860250	0.863450	0.437300
C271	C27	0.964950	0.822950	0.401300
C281	C28	0.956920	0.810120	0.301840
C291	C29	0.844450	0.838750	0.262900
C301	C30	0.802070	0.841070	0.161340
C311	C31	0.619500	0.140100	0.179200
C321	C32	0.593820	0.203020	0.280440
C331	C33	0.492820	0.192820	0.317040
C341	C34	0.625550	0.342350	0.459900
C351	C35	0.510910	0.273710	0.420820
C361	C36	0.639750	0.426150	0.562700
C371	C37	0.535050	0.421650	0.598700
C381	C38	0.543080	0.508280	0.698160
C391	C39	0.655550	0.575850	0.737100
C401	C40	0.697930	0.679730	0.838660
S11	S1	0.211940	0.058860	0.370660
S21	S2	0.253340	0.116990	0.653260
S31	S3	0.918160	0.199000	0.509360
S41	S4	0.288060	0.688200	0.629340
S51	S5	0.246660	0.463730	0.346740
S61	S6	0.581840	0.689640	0.490640
S71	S7	0.788060	0.941140	0.629340
S81	S8	0.746660	0.883010	0.346740
S91	S9	0.081840	0.801000	0.490640
S101	S10	0.711940	0.311800	0.370660
S111	S11	0.753340	0.536270	0.653260
S121	S12	0.418160	0.310360	0.509360
O11	O1	0.306490	0.132290	0.860740
O21	O2	0.119790	0.184570	0.892860
O31	O3	0.224640	0.006060	0.168980
O41	O4	0.032750	0.043640	0.108100
O51	O5	0.193510	0.271550	0.139260
O61	O6	0.380210	0.291710	0.107140
O71	O7	0.275360	0.837080	0.831020
O81	O8	0.467250	0.935540	0.891900
O91	O9	0.693510	0.867710	0.139260
O101	O10	0.880210	0.815430	0.107140
O111	O11	0.775360	0.993940	0.831020
O121	O12	0.967250	0.956360	0.891900
O131	O13	0.806490	0.728450	0.860740
O141	O14	0.619790	0.708290	0.892860
O151	O15	0.724640	0.162920	0.168980
O161	O16	0.532750	0.064460	0.108100
O171	O17	0.250000	0.015000	0.000000
O181	O18	0.750000	0.985000	0.000000
