data_VUMBIQ_clean_PM
_symmetry_space_group_name_H-M	'P1'
_cell_length_a	28.477400
_cell_length_b	9.469400
_cell_length_c	18.892100
_cell_angle_alpha	90.000000
_cell_angle_beta	90.000000
_cell_angle_gamma	90.000000
_symmetry_Int_Tables_number 1

loop_
_symmetry_equiv_pos_as_xyz
'x,y,z'

loop_
_atom_site_label
_atom_site_type_symbol
_atom_site_fract_x
_atom_site_fract_y
_atom_site_fract_z
Cu11	Cu1	0.065470	0.107800	0.925510
P11	P1	0.096500	0.048400	0.760000
O11	O1	0.955500	0.327600	0.520700
O21	O2	0.084500	0.014500	0.839100
O31	O3	0.113400	0.909700	0.720700
O41	O4	0.135000	0.165600	0.749600
N11	N1	0.134400	0.152700	0.951400
C11	C1	0.042900	0.110300	0.724200
C21	C2	0.042600	0.200200	0.665000
C31	C3	0.225700	0.231500	0.988600
C41	C4	0.186500	0.291500	0.022800
C51	C5	0.141500	0.248900	0.000900
C61	C6	0.170300	0.092000	0.919500
C71	C7	0.217800	0.133600	0.936200
H11	H1	0.071100	0.213000	0.639000
H21	H2	0.189900	0.381000	0.045000
H31	H3	0.115700	0.305000	0.015000
H41	H4	0.165700	0.001000	0.901000
H51	H5	0.242000	0.076000	0.922000
Cu21	Cu2	0.565470	0.607800	0.925510
P21	P2	0.596500	0.548400	0.760000
O51	O5	0.455500	0.827600	0.520700
O61	O6	0.584500	0.514500	0.839100
O71	O7	0.613400	0.409700	0.720700
O81	O8	0.635000	0.665600	0.749600
N21	N2	0.634400	0.652700	0.951400
C81	C8	0.542900	0.610300	0.724200
C91	C9	0.542600	0.700200	0.665000
C101	C10	0.725700	0.731500	0.988600
C111	C11	0.686500	0.791500	0.022800
C121	C12	0.641500	0.748900	0.000900
C131	C13	0.670300	0.592000	0.919500
C141	C14	0.717800	0.633600	0.936200
H61	H6	0.571100	0.713000	0.639000
H71	H7	0.689900	0.881000	0.045000
H81	H8	0.615700	0.805000	0.015000
H91	H9	0.665700	0.501000	0.901000
H101	H10	0.742000	0.576000	0.922000
Cu31	Cu3	0.934530	0.392200	0.425510
P31	P3	0.903500	0.451600	0.260000
O91	O9	0.044500	0.172400	0.020700
O101	O10	0.915500	0.485500	0.339100
O111	O11	0.886600	0.590300	0.220700
O121	O12	0.865000	0.334400	0.249600
N31	N3	0.865600	0.347300	0.451400
C151	C15	0.957100	0.389700	0.224200
C161	C16	0.957400	0.299800	0.165000
C171	C17	0.774300	0.268500	0.488600
C181	C18	0.813500	0.208500	0.522800
C191	C19	0.858500	0.251100	0.500900
C201	C20	0.829700	0.408000	0.419500
C211	C21	0.782200	0.366400	0.436200
H111	H11	0.928900	0.287000	0.139000
H121	H12	0.810100	0.119000	0.545000
H131	H13	0.884300	0.195000	0.515000
H141	H14	0.834300	0.499000	0.401000
H151	H15	0.758000	0.424000	0.422000
Cu41	Cu4	0.434530	0.892200	0.425510
P41	P4	0.403500	0.951600	0.260000
O131	O13	0.544500	0.672400	0.020700
O141	O14	0.415500	0.985500	0.339100
O151	O15	0.386600	0.090300	0.220700
O161	O16	0.365000	0.834400	0.249600
N41	N4	0.365600	0.847300	0.451400
C221	C22	0.457100	0.889700	0.224200
C231	C23	0.457400	0.799800	0.165000
C241	C24	0.274300	0.768500	0.488600
C251	C25	0.313500	0.708500	0.522800
C261	C26	0.358500	0.751100	0.500900
C271	C27	0.329700	0.908000	0.419500
C281	C28	0.282200	0.866400	0.436200
H161	H16	0.428900	0.787000	0.139000
H171	H17	0.310100	0.619000	0.545000
H181	H18	0.384300	0.695000	0.515000
H191	H19	0.334300	0.999000	0.401000
H201	H20	0.258000	0.924000	0.422000
Cu51	Cu5	0.934530	0.607800	0.574490
P51	P5	0.903500	0.548400	0.740000
O171	O17	0.044500	0.827600	0.979300
O181	O18	0.915500	0.514500	0.660900
O191	O19	0.886600	0.409700	0.779300
O201	O20	0.865000	0.665600	0.750400
N51	N5	0.865600	0.652700	0.548600
C291	C29	0.957100	0.610300	0.775800
C301	C30	0.957400	0.700200	0.835000
C311	C31	0.774300	0.731500	0.511400
C321	C32	0.813500	0.791500	0.477200
C331	C33	0.858500	0.748900	0.499100
C341	C34	0.829700	0.592000	0.580500
C351	C35	0.782200	0.633600	0.563800
H211	H21	0.928900	0.713000	0.861000
H221	H22	0.810100	0.881000	0.455000
H231	H23	0.884300	0.805000	0.485000
H241	H24	0.834300	0.501000	0.599000
H251	H25	0.758000	0.576000	0.578000
Cu61	Cu6	0.434530	0.107800	0.574490
P61	P6	0.403500	0.048400	0.740000
O211	O21	0.544500	0.327600	0.979300
O221	O22	0.415500	0.014500	0.660900
O231	O23	0.386600	0.909700	0.779300
O241	O24	0.365000	0.165600	0.750400
N61	N6	0.365600	0.152700	0.548600
C361	C36	0.457100	0.110300	0.775800
C371	C37	0.457400	0.200200	0.835000
C381	C38	0.274300	0.231500	0.511400
C391	C39	0.313500	0.291500	0.477200
C401	C40	0.358500	0.248900	0.499100
C411	C41	0.329700	0.092000	0.580500
C421	C42	0.282200	0.133600	0.563800
H261	H26	0.428900	0.213000	0.861000
H271	H27	0.310100	0.381000	0.455000
H281	H28	0.384300	0.305000	0.485000
H291	H29	0.334300	0.001000	0.599000
H301	H30	0.258000	0.076000	0.578000
Cu71	Cu7	0.065470	0.892200	0.074490
P71	P7	0.096500	0.951600	0.240000
O251	O25	0.955500	0.672400	0.479300
O261	O26	0.084500	0.985500	0.160900
O271	O27	0.113400	0.090300	0.279300
O281	O28	0.135000	0.834400	0.250400
N71	N7	0.134400	0.847300	0.048600
C431	C43	0.042900	0.889700	0.275800
C441	C44	0.042600	0.799800	0.335000
C451	C45	0.225700	0.768500	0.011400
C461	C46	0.186500	0.708500	0.977200
C471	C47	0.141500	0.751100	0.999100
C481	C48	0.170300	0.908000	0.080500
C491	C49	0.217800	0.866400	0.063800
H311	H31	0.071100	0.787000	0.361000
H321	H32	0.189900	0.619000	0.955000
H331	H33	0.115700	0.695000	0.985000
H341	H34	0.165700	0.999000	0.099000
H351	H35	0.242000	0.924000	0.078000
Cu81	Cu8	0.565470	0.392200	0.074490
P81	P8	0.596500	0.451600	0.240000
O291	O29	0.455500	0.172400	0.479300
O301	O30	0.584500	0.485500	0.160900
O311	O31	0.613400	0.590300	0.279300
O321	O32	0.635000	0.334400	0.250400
N81	N8	0.634400	0.347300	0.048600
C501	C50	0.542900	0.389700	0.275800
C511	C51	0.542600	0.299800	0.335000
C521	C52	0.725700	0.268500	0.011400
C531	C53	0.686500	0.208500	0.977200
C541	C54	0.641500	0.251100	0.999100
C551	C55	0.670300	0.408000	0.080500
C561	C56	0.717800	0.366400	0.063800
H361	H36	0.571100	0.287000	0.361000
H371	H37	0.689900	0.119000	0.955000
H381	H38	0.615700	0.195000	0.985000
H391	H39	0.665700	0.499000	0.099000
H401	H40	0.742000	0.424000	0.078000
Cu91	Cu9	0.934530	0.892200	0.074490
P91	P9	0.903500	0.951600	0.240000
O331	O33	0.044500	0.672400	0.479300
O341	O34	0.915500	0.985500	0.160900
O351	O35	0.886600	0.090300	0.279300
O361	O36	0.865000	0.834400	0.250400
N91	N9	0.865600	0.847300	0.048600
C571	C57	0.957100	0.889700	0.275800
C581	C58	0.957400	0.799800	0.335000
C591	C59	0.774300	0.768500	0.011400
C601	C60	0.813500	0.708500	0.977200
C611	C61	0.858500	0.751100	0.999100
C621	C62	0.829700	0.908000	0.080500
C631	C63	0.782200	0.866400	0.063800
H411	H41	0.928900	0.787000	0.361000
H421	H42	0.810100	0.619000	0.955000
H431	H43	0.884300	0.695000	0.985000
H441	H44	0.834300	0.999000	0.099000
H451	H45	0.758000	0.924000	0.078000
Cu101	Cu10	0.434530	0.392200	0.074490
P101	P10	0.403500	0.451600	0.240000
O371	O37	0.544500	0.172400	0.479300
O381	O38	0.415500	0.485500	0.160900
O391	O39	0.386600	0.590300	0.279300
O401	O40	0.365000	0.334400	0.250400
N101	N10	0.365600	0.347300	0.048600
C641	C64	0.457100	0.389700	0.275800
C651	C65	0.457400	0.299800	0.335000
C661	C66	0.274300	0.268500	0.011400
C671	C67	0.313500	0.208500	0.977200
C681	C68	0.358500	0.251100	0.999100
C691	C69	0.329700	0.408000	0.080500
C701	C70	0.282200	0.366400	0.063800
H461	H46	0.428900	0.287000	0.361000
H471	H47	0.310100	0.119000	0.955000
H481	H48	0.384300	0.195000	0.985000
H491	H49	0.334300	0.499000	0.099000
H501	H50	0.258000	0.424000	0.078000
Cu111	Cu11	0.065470	0.607800	0.574490
P111	P11	0.096500	0.548400	0.740000
O411	O41	0.955500	0.827600	0.979300
O421	O42	0.084500	0.514500	0.660900
O431	O43	0.113400	0.409700	0.779300
O441	O44	0.135000	0.665600	0.750400
N111	N11	0.134400	0.652700	0.548600
C711	C71	0.042900	0.610300	0.775800
C721	C72	0.042600	0.700200	0.835000
C731	C73	0.225700	0.731500	0.511400
C741	C74	0.186500	0.791500	0.477200
C751	C75	0.141500	0.748900	0.499100
C761	C76	0.170300	0.592000	0.580500
C771	C77	0.217800	0.633600	0.563800
H511	H51	0.071100	0.713000	0.861000
H521	H52	0.189900	0.881000	0.455000
H531	H53	0.115700	0.805000	0.485000
H541	H54	0.165700	0.501000	0.599000
H551	H55	0.242000	0.576000	0.578000
Cu121	Cu12	0.565470	0.107800	0.574490
P121	P12	0.596500	0.048400	0.740000
O451	O45	0.455500	0.327600	0.979300
O461	O46	0.584500	0.014500	0.660900
O471	O47	0.613400	0.909700	0.779300
O481	O48	0.635000	0.165600	0.750400
N121	N12	0.634400	0.152700	0.548600
C781	C78	0.542900	0.110300	0.775800
C791	C79	0.542600	0.200200	0.835000
C801	C80	0.725700	0.231500	0.511400
C811	C81	0.686500	0.291500	0.477200
C821	C82	0.641500	0.248900	0.499100
C831	C83	0.670300	0.092000	0.580500
C841	C84	0.717800	0.133600	0.563800
H561	H56	0.571100	0.213000	0.861000
H571	H57	0.689900	0.381000	0.455000
H581	H58	0.615700	0.305000	0.485000
H591	H59	0.665700	0.001000	0.599000
H601	H60	0.742000	0.076000	0.578000
Cu131	Cu13	0.065470	0.392200	0.425510
P131	P13	0.096500	0.451600	0.260000
O491	O49	0.955500	0.172400	0.020700
O501	O50	0.084500	0.485500	0.339100
O511	O51	0.113400	0.590300	0.220700
O521	O52	0.135000	0.334400	0.249600
N131	N13	0.134400	0.347300	0.451400
C851	C85	0.042900	0.389700	0.224200
C861	C86	0.042600	0.299800	0.165000
C871	C87	0.225700	0.268500	0.488600
C881	C88	0.186500	0.208500	0.522800
C891	C89	0.141500	0.251100	0.500900
C901	C90	0.170300	0.408000	0.419500
C911	C91	0.217800	0.366400	0.436200
H611	H61	0.071100	0.287000	0.139000
H621	H62	0.189900	0.119000	0.545000
H631	H63	0.115700	0.195000	0.515000
H641	H64	0.165700	0.499000	0.401000
H651	H65	0.242000	0.424000	0.422000
Cu141	Cu14	0.565470	0.892200	0.425510
P141	P14	0.596500	0.951600	0.260000
O531	O53	0.455500	0.672400	0.020700
O541	O54	0.584500	0.985500	0.339100
O551	O55	0.613400	0.090300	0.220700
O561	O56	0.635000	0.834400	0.249600
N141	N14	0.634400	0.847300	0.451400
C921	C92	0.542900	0.889700	0.224200
C931	C93	0.542600	0.799800	0.165000
C941	C94	0.725700	0.768500	0.488600
C951	C95	0.686500	0.708500	0.522800
C961	C96	0.641500	0.751100	0.500900
C971	C97	0.670300	0.908000	0.419500
C981	C98	0.717800	0.866400	0.436200
H661	H66	0.571100	0.787000	0.139000
H671	H67	0.689900	0.619000	0.545000
H681	H68	0.615700	0.695000	0.515000
H691	H69	0.665700	0.999000	0.401000
H701	H70	0.742000	0.924000	0.422000
Cu151	Cu15	0.934530	0.107800	0.925510
P151	P15	0.903500	0.048400	0.760000
O571	O57	0.044500	0.327600	0.520700
O581	O58	0.915500	0.014500	0.839100
O591	O59	0.886600	0.909700	0.720700
O601	O60	0.865000	0.165600	0.749600
N151	N15	0.865600	0.152700	0.951400
C991	C99	0.957100	0.110300	0.724200
C1001	C100	0.957400	0.200200	0.665000
C1011	C101	0.774300	0.231500	0.988600
C1021	C102	0.813500	0.291500	0.022800
C1031	C103	0.858500	0.248900	0.000900
C1041	C104	0.829700	0.092000	0.919500
C1051	C105	0.782200	0.133600	0.936200
H711	H71	0.928900	0.213000	0.639000
H721	H72	0.810100	0.381000	0.045000
H731	H73	0.884300	0.305000	0.015000
H741	H74	0.834300	0.001000	0.901000
H751	H75	0.758000	0.076000	0.922000
Cu161	Cu16	0.434530	0.607800	0.925510
P161	P16	0.403500	0.548400	0.760000
O611	O61	0.544500	0.827600	0.520700
O621	O62	0.415500	0.514500	0.839100
O631	O63	0.386600	0.409700	0.720700
O641	O64	0.365000	0.665600	0.749600
N161	N16	0.365600	0.652700	0.951400
C1061	C106	0.457100	0.610300	0.724200
C1071	C107	0.457400	0.700200	0.665000
C1081	C108	0.274300	0.731500	0.988600
C1091	C109	0.313500	0.791500	0.022800
C1101	C110	0.358500	0.748900	0.000900
C1111	C111	0.329700	0.592000	0.919500
C1121	C112	0.282200	0.633600	0.936200
H761	H76	0.428900	0.713000	0.639000
H771	H77	0.310100	0.881000	0.045000
H781	H78	0.384300	0.805000	0.015000
H791	H79	0.334300	0.501000	0.901000
H801	H80	0.258000	0.576000	0.922000
P171	P17	0.000000	0.361500	0.559100
O651	O65	0.000000	0.518800	0.582900
C1131	C113	0.000000	0.244100	0.634100
C1141	C114	0.000000	0.064400	0.752400
H811	H81	0.000000	0.019000	0.797000
P181	P18	0.500000	0.861500	0.559100
O661	O66	0.500000	0.018800	0.582900
C1151	C115	0.500000	0.744100	0.634100
C1161	C116	0.500000	0.564400	0.752400
H821	H82	0.500000	0.519000	0.797000
P191	P19	0.000000	0.138500	0.059100
O671	O67	0.000000	0.981200	0.082900
C1171	C117	0.000000	0.255900	0.134100
C1181	C118	0.000000	0.435600	0.252400
H831	H83	0.000000	0.481000	0.297000
P201	P20	0.500000	0.638500	0.059100
O681	O68	0.500000	0.481200	0.082900
C1191	C119	0.500000	0.755900	0.134100
C1201	C120	0.500000	0.935600	0.252400
H841	H84	0.500000	0.981000	0.297000
P211	P21	0.000000	0.861500	0.940900
O691	O69	0.000000	0.018800	0.917100
C1211	C121	0.000000	0.744100	0.865900
C1221	C122	0.000000	0.564400	0.747600
H851	H85	0.000000	0.519000	0.703000
P221	P22	0.500000	0.361500	0.940900
O701	O70	0.500000	0.518800	0.917100
C1231	C123	0.500000	0.244100	0.865900
C1241	C124	0.500000	0.064400	0.747600
H861	H86	0.500000	0.019000	0.703000
P231	P23	0.000000	0.638500	0.440900
O711	O71	0.000000	0.481200	0.417100
C1251	C125	0.000000	0.755900	0.365900
C1261	C126	0.000000	0.935600	0.247600
H871	H87	0.000000	0.981000	0.203000
P241	P24	0.500000	0.138500	0.440900
O721	O72	0.500000	0.981200	0.417100
C1271	C127	0.500000	0.255900	0.365900
C1281	C128	0.500000	0.435600	0.247600
H881	H88	0.500000	0.481000	0.203000
