data_VUNCAJ_clean_PM
_symmetry_space_group_name_H-M	'P1'
_cell_length_a	8.629600
_cell_length_b	9.608000
_cell_length_c	14.497000
_cell_angle_alpha	90.000000
_cell_angle_beta	93.097000
_cell_angle_gamma	90.000000
_symmetry_Int_Tables_number 1

loop_
_symmetry_equiv_pos_as_xyz
'x,y,z'

loop_
_atom_site_label
_atom_site_type_symbol
_atom_site_fract_x
_atom_site_fract_y
_atom_site_fract_z
Zn11	Zn1	0.656740	0.502940	0.671690
Zn21	Zn2	0.843260	0.002940	0.828310
Zn31	Zn3	0.343260	0.497060	0.328310
Zn41	Zn4	0.156740	0.997060	0.171690
H11	H1	0.044000	0.040400	0.591400
H21	H2	0.161700	0.985200	0.518200
H31	H3	0.097700	0.184500	0.423100
H41	H4	0.183100	0.224700	0.520100
H51	H5	0.715800	0.495800	0.459700
H61	H6	0.934400	0.266800	0.648400
H71	H7	0.450300	0.773400	0.451300
H81	H8	0.456000	0.540400	0.908600
H91	H9	0.338300	0.485200	0.981800
H101	H10	0.402300	0.684500	0.076900
H111	H11	0.316900	0.724700	0.979900
H121	H12	0.784200	0.995800	0.040300
H131	H13	0.565600	0.766800	0.851600
H141	H14	0.049700	0.273400	0.048700
H151	H15	0.956000	0.959600	0.408600
H161	H16	0.838300	0.014800	0.481800
H171	H17	0.902300	0.815500	0.576900
H181	H18	0.816900	0.775300	0.479900
H191	H19	0.284200	0.504200	0.540300
H201	H20	0.065600	0.733200	0.351600
H211	H21	0.549700	0.226600	0.548700
H221	H22	0.544000	0.459600	0.091400
H231	H23	0.661700	0.514800	0.018200
H241	H24	0.597700	0.315500	0.923100
H251	H25	0.683100	0.275300	0.020100
H261	H26	0.215800	0.004200	0.959700
H271	H27	0.434400	0.233200	0.148400
H281	H28	0.950300	0.726600	0.951300
C11	C1	0.064100	0.037600	0.524800
C21	C2	0.086200	0.186200	0.490700
C31	C3	0.784200	0.429400	0.488500
C41	C4	0.900100	0.307900	0.591300
C51	C5	0.469500	0.866200	0.471500
C61	C6	0.526200	0.889100	0.561100
C71	C7	0.560000	0.025300	0.589700
C81	C8	0.542400	0.767600	0.626600
C91	C9	0.638300	0.056000	0.683100
C101	C10	0.435900	0.537600	0.975200
C111	C11	0.413800	0.686200	0.009300
C121	C12	0.715800	0.929400	0.011500
C131	C13	0.599900	0.807900	0.908700
C141	C14	0.030500	0.366200	0.028500
C151	C15	0.973800	0.389100	0.938900
C161	C16	0.940000	0.525300	0.910300
C171	C17	0.957600	0.267600	0.873400
C181	C18	0.861700	0.556000	0.816900
C191	C19	0.935900	0.962400	0.475200
C201	C20	0.913800	0.813800	0.509300
C211	C21	0.215800	0.570600	0.511500
C221	C22	0.099900	0.692100	0.408700
C231	C23	0.530500	0.133800	0.528500
C241	C24	0.473800	0.110900	0.438900
C251	C25	0.440000	0.974700	0.410300
C261	C26	0.457600	0.232400	0.373400
C271	C27	0.361700	0.944000	0.316900
C281	C28	0.564100	0.462400	0.024800
C291	C29	0.586200	0.313800	0.990700
C301	C30	0.284200	0.070600	0.988500
C311	C31	0.400100	0.192100	0.091300
C321	C32	0.969500	0.633800	0.971500
C331	C33	0.026200	0.610900	0.061100
C341	C34	0.060000	0.474700	0.089700
C351	C35	0.042400	0.732400	0.126600
C361	C36	0.138300	0.444000	0.183100
N11	N1	0.955200	0.278600	0.511100
N21	N2	0.880600	0.355600	0.442900
N31	N3	0.789400	0.403700	0.581000
N41	N4	0.544800	0.778600	0.988900
N51	N5	0.619400	0.855600	0.057100
N61	N6	0.710600	0.903700	0.919000
N71	N7	0.044800	0.721400	0.488900
N81	N8	0.119400	0.644400	0.557100
N91	N9	0.210600	0.596300	0.419000
N101	N10	0.455200	0.221400	0.011100
N111	N11	0.380600	0.144400	0.942900
N121	N12	0.289400	0.096300	0.081000
O11	O1	0.605800	0.660800	0.592900
O21	O2	0.493000	0.775200	0.704600
O31	O3	0.758100	0.982400	0.703200
O41	O4	0.591000	0.149300	0.733300
O51	O5	0.894200	0.160800	0.907100
O61	O6	0.007000	0.275200	0.795400
O71	O7	0.741900	0.482400	0.796800
O81	O8	0.909000	0.649300	0.766700
O91	O9	0.394200	0.339200	0.407100
O101	O10	0.507000	0.224800	0.295400
O111	O11	0.241900	0.017600	0.296800
O121	O12	0.409000	0.850700	0.266700
O131	O13	0.105800	0.839200	0.092900
O141	O14	0.993000	0.724800	0.204600
O151	O15	0.258100	0.517600	0.203200
O161	O16	0.091000	0.350700	0.233300
