data_VUNHAN_clean_PM
_symmetry_space_group_name_H-M	'P1'
_cell_length_a	13.741000
_cell_length_b	12.356000
_cell_length_c	20.729000
_cell_angle_alpha	90.000000
_cell_angle_beta	101.450000
_cell_angle_gamma	90.000000
_symmetry_Int_Tables_number 1

loop_
_symmetry_equiv_pos_as_xyz
'x,y,z'

loop_
_atom_site_label
_atom_site_type_symbol
_atom_site_fract_x
_atom_site_fract_y
_atom_site_fract_z
Na11	Na1	0.271200	0.240500	0.312000
Na21	Na2	0.094400	0.103000	0.725700
Na31	Na3	0.057000	0.888800	0.468100
Na41	Na4	0.184100	0.285600	0.483300
S11	S1	0.233300	0.047500	0.394700
S21	S2	0.162400	0.828700	0.712100
S31	S3	0.256200	0.239900	0.639800
O11	O1	0.498600	0.713600	0.534700
O21	O2	0.135000	0.013500	0.402000
O31	O3	0.261900	0.152700	0.421400
O41	O4	0.240500	0.040900	0.324700
O51	O5	0.557500	0.712900	0.663600
O61	O6	0.138300	0.936200	0.690400
O71	O7	0.160500	0.808100	0.781400
O81	O8	0.097000	0.752100	0.671000
O91	O9	0.607200	0.517900	0.665500
O101	O10	0.237600	0.206200	0.703200
O111	O11	0.178400	0.308200	0.604900
O121	O12	0.271200	0.149900	0.598800
C11	C1	0.439300	0.794300	0.505000
C21	C2	0.388400	0.773600	0.440100
C31	C3	0.326400	0.852700	0.407700
C41	C4	0.315800	0.952200	0.435900
C51	C5	0.366400	0.970000	0.501500
C61	C6	0.426400	0.892100	0.535300
C71	C7	0.474100	0.911000	0.607800
C81	C8	0.469000	0.743600	0.677300
C91	C9	0.424100	0.837500	0.652800
C101	C10	0.331100	0.869000	0.663900
C111	C11	0.283600	0.798500	0.701600
C121	C12	0.327000	0.705200	0.726200
C131	C13	0.420600	0.674400	0.718100
C141	C14	0.467600	0.572300	0.747100
C151	C15	0.528600	0.450100	0.663200
C161	C16	0.454800	0.474700	0.701600
C171	C17	0.373100	0.406600	0.693900
C181	C18	0.365500	0.316500	0.654600
C191	C19	0.442200	0.290000	0.620300
C201	C20	0.524600	0.357200	0.627000
C211	C21	0.390700	0.662300	0.409000
O131	O13	0.102100	0.015300	0.559300
O141	O14	0.085400	0.224600	0.281100
O151	O15	0.205100	0.418700	0.334100
O161	O16	0.965700	0.810600	0.550300
O171	O17	0.990000	0.210000	0.632500
Na51	Na5	0.728800	0.740500	0.188000
Na61	Na6	0.905600	0.603000	0.774300
Na71	Na7	0.943000	0.388800	0.031900
Na81	Na8	0.815900	0.785600	0.016700
S41	S4	0.766700	0.547500	0.105300
S51	S5	0.837600	0.328700	0.787900
S61	S6	0.743800	0.739900	0.860200
O181	O18	0.501400	0.213600	0.965300
O191	O19	0.865000	0.513500	0.098000
O201	O20	0.738100	0.652700	0.078600
O211	O21	0.759500	0.540900	0.175300
O221	O22	0.442500	0.212900	0.836400
O231	O23	0.861700	0.436200	0.809600
O241	O24	0.839500	0.308100	0.718600
O251	O25	0.903000	0.252100	0.829000
O261	O26	0.392800	0.017900	0.834500
O271	O27	0.762400	0.706200	0.796800
O281	O28	0.821600	0.808200	0.895100
O291	O29	0.728800	0.649900	0.901200
C221	C22	0.560700	0.294300	0.995000
C231	C23	0.611600	0.273600	0.059900
C241	C24	0.673600	0.352700	0.092300
C251	C25	0.684200	0.452200	0.064100
C261	C26	0.633600	0.470000	0.998500
C271	C27	0.573600	0.392100	0.964700
C281	C28	0.525900	0.411000	0.892200
C291	C29	0.531000	0.243600	0.822700
C301	C30	0.575900	0.337500	0.847200
C311	C31	0.668900	0.369000	0.836100
C321	C32	0.716400	0.298500	0.798400
C331	C33	0.673000	0.205200	0.773800
C341	C34	0.579400	0.174400	0.781900
C351	C35	0.532400	0.072300	0.752900
C361	C36	0.471400	0.950100	0.836800
C371	C37	0.545200	0.974700	0.798400
C381	C38	0.626900	0.906600	0.806100
C391	C39	0.634500	0.816500	0.845400
C401	C40	0.557800	0.790000	0.879700
C411	C41	0.475400	0.857200	0.873000
C421	C42	0.609300	0.162300	0.091000
O301	O30	0.897900	0.515300	0.940700
O311	O31	0.914600	0.724600	0.218900
O321	O32	0.794900	0.918700	0.165900
O331	O33	0.034300	0.310600	0.949700
O341	O34	0.010000	0.710000	0.867500
Na91	Na9	0.728800	0.759500	0.688000
Na101	Na10	0.905600	0.897000	0.274300
Na111	Na11	0.943000	0.111200	0.531900
Na121	Na12	0.815900	0.714400	0.516700
S71	S7	0.766700	0.952500	0.605300
S81	S8	0.837600	0.171300	0.287900
S91	S9	0.743800	0.760100	0.360200
O351	O35	0.501400	0.286400	0.465300
O361	O36	0.865000	0.986500	0.598000
O371	O37	0.738100	0.847300	0.578600
O381	O38	0.759500	0.959100	0.675300
O391	O39	0.442500	0.287100	0.336400
O401	O40	0.861700	0.063800	0.309600
O411	O41	0.839500	0.191900	0.218600
O421	O42	0.903000	0.247900	0.329000
O431	O43	0.392800	0.482100	0.334500
O441	O44	0.762400	0.793800	0.296800
O451	O45	0.821600	0.691800	0.395100
O461	O46	0.728800	0.850100	0.401200
C431	C43	0.560700	0.205700	0.495000
C441	C44	0.611600	0.226400	0.559900
C451	C45	0.673600	0.147300	0.592300
C461	C46	0.684200	0.047800	0.564100
C471	C47	0.633600	0.030000	0.498500
C481	C48	0.573600	0.107900	0.464700
C491	C49	0.525900	0.089000	0.392200
C501	C50	0.531000	0.256400	0.322700
C511	C51	0.575900	0.162500	0.347200
C521	C52	0.668900	0.131000	0.336100
C531	C53	0.716400	0.201500	0.298400
C541	C54	0.673000	0.294800	0.273800
C551	C55	0.579400	0.325600	0.281900
C561	C56	0.532400	0.427700	0.252900
C571	C57	0.471400	0.549900	0.336800
C581	C58	0.545200	0.525300	0.298400
C591	C59	0.626900	0.593400	0.306100
C601	C60	0.634500	0.683500	0.345400
C611	C61	0.557800	0.710000	0.379700
C621	C62	0.475400	0.642800	0.373000
C631	C63	0.609300	0.337700	0.591000
O471	O47	0.897900	0.984700	0.440700
O481	O48	0.914600	0.775400	0.718900
O491	O49	0.794900	0.581300	0.665900
O501	O50	0.034300	0.189400	0.449700
O511	O51	0.010000	0.790000	0.367500
Na131	Na13	0.271200	0.259500	0.812000
Na141	Na14	0.094400	0.397000	0.225700
Na151	Na15	0.057000	0.611200	0.968100
Na161	Na16	0.184100	0.214400	0.983300
S101	S10	0.233300	0.452500	0.894700
S111	S11	0.162400	0.671300	0.212100
S121	S12	0.256200	0.260100	0.139800
O521	O52	0.498600	0.786400	0.034700
O531	O53	0.135000	0.486500	0.902000
O541	O54	0.261900	0.347300	0.921400
O551	O55	0.240500	0.459100	0.824700
O561	O56	0.557500	0.787100	0.163600
O571	O57	0.138300	0.563800	0.190400
O581	O58	0.160500	0.691900	0.281400
O591	O59	0.097000	0.747900	0.171000
O601	O60	0.607200	0.982100	0.165500
O611	O61	0.237600	0.293800	0.203200
O621	O62	0.178400	0.191800	0.104900
O631	O63	0.271200	0.350100	0.098800
C641	C64	0.439300	0.705700	0.005000
C651	C65	0.388400	0.726400	0.940100
C661	C66	0.326400	0.647300	0.907700
C671	C67	0.315800	0.547800	0.935900
C681	C68	0.366400	0.530000	0.001500
C691	C69	0.426400	0.607900	0.035300
C701	C70	0.474100	0.589000	0.107800
C711	C71	0.469000	0.756400	0.177300
C721	C72	0.424100	0.662500	0.152800
C731	C73	0.331100	0.631000	0.163900
C741	C74	0.283600	0.701500	0.201600
C751	C75	0.327000	0.794800	0.226200
C761	C76	0.420600	0.825600	0.218100
C771	C77	0.467600	0.927700	0.247100
C781	C78	0.528600	0.049900	0.163200
C791	C79	0.454800	0.025300	0.201600
C801	C80	0.373100	0.093400	0.193900
C811	C81	0.365500	0.183500	0.154600
C821	C82	0.442200	0.210000	0.120300
C831	C83	0.524600	0.142800	0.127000
C841	C84	0.390700	0.837700	0.909000
O641	O64	0.102100	0.484700	0.059300
O651	O65	0.085400	0.275400	0.781100
O661	O66	0.205100	0.081300	0.834100
O671	O67	0.965700	0.689400	0.050300
O681	O68	0.990000	0.290000	0.132500
