data_VUPDOB_clean_PM
_symmetry_space_group_name_H-M	'P1'
_cell_length_a	7.017000
_cell_length_b	26.637000
_cell_length_c	18.062000
_cell_angle_alpha	90.000000
_cell_angle_beta	98.270000
_cell_angle_gamma	90.000000
_symmetry_Int_Tables_number 1

loop_
_symmetry_equiv_pos_as_xyz
'x,y,z'

loop_
_atom_site_label
_atom_site_type_symbol
_atom_site_fract_x
_atom_site_fract_y
_atom_site_fract_z
Sm11	Sm1	0.683370	0.429460	0.932950
O11	O1	0.058900	0.004900	0.920700
Sm21	Sm2	0.762810	0.067910	0.049180
O21	O2	0.570200	0.037700	0.944700
O31	O3	0.436600	0.975800	0.871700
O41	O4	0.690700	0.051500	0.559700
O51	O5	0.584000	0.979600	0.602700
O61	O6	0.954600	0.081200	0.948600
O71	O7	0.150000	0.963100	0.669100
O81	O8	0.184700	0.019300	0.581900
O91	O9	0.437400	0.115500	0.045100
O101	O10	0.702800	0.157100	0.014500
O111	O11	0.668000	0.341100	0.974100
O121	O12	0.390600	0.381000	0.958900
N11	N1	0.589000	0.290400	0.769500
N21	N2	0.021000	0.295200	0.691500
C11	C1	0.096000	0.277700	0.757400
H11	H1	0.133800	0.300800	0.795200
C21	C2	0.123000	0.227000	0.774500
H21	H2	0.182100	0.217400	0.821800
C31	C3	0.061100	0.190400	0.720400
C41	C4	0.986000	0.209100	0.649100
H31	H3	0.951000	0.187000	0.609600
C51	C5	0.965000	0.261300	0.637700
H41	H4	0.908600	0.272800	0.590900
C61	C6	0.074000	0.135800	0.738200
C71	C7	0.047000	0.119800	0.810300
H51	H5	0.025000	0.143300	0.846200
C81	C8	0.053300	0.069000	0.827600
C91	C9	0.081600	0.033000	0.773600
H61	H6	0.083000	0.999000	0.785400
C101	C10	0.108300	0.049000	0.700700
C111	C11	0.102100	0.099800	0.683600
H71	H7	0.116600	0.110200	0.635600
C121	C12	0.146500	0.008300	0.647300
C131	C13	0.021100	0.050000	0.905200
C141	C14	0.652000	0.260500	0.828900
H81	H8	0.699700	0.275700	0.874000
C151	C15	0.647000	0.208400	0.825700
H91	H9	0.686900	0.189700	0.868700
C161	C16	0.584400	0.184300	0.758600
C171	C17	0.523000	0.215300	0.697100
H101	H10	0.479700	0.201000	0.650900
C181	C18	0.527000	0.267300	0.704400
H111	H11	0.485300	0.286800	0.662500
C191	C19	0.582800	0.128500	0.753200
C201	C20	0.556600	0.100300	0.815600
H121	H12	0.542600	0.116600	0.860100
C211	C21	0.550800	0.047400	0.812800
C221	C22	0.571800	0.023500	0.745000
H131	H13	0.563300	0.988700	0.741600
C231	C23	0.605200	0.051400	0.682900
C241	C24	0.606800	0.104000	0.686000
H141	H14	0.623700	0.122700	0.643900
C251	C25	0.519700	0.017500	0.880900
C261	C26	0.628400	0.026100	0.610100
C271	C27	0.523000	0.155000	0.019500
C281	C28	0.402600	0.201700	0.001000
C291	C29	0.200800	0.198500	0.987500
H151	H15	0.139500	0.167700	0.990600
C301	C30	0.093900	0.242000	0.969600
H161	H16	0.960300	0.239800	0.960200
C311	C31	0.181100	0.288800	0.965200
H171	H17	0.107100	0.317400	0.953400
C321	C32	0.383300	0.291700	0.979100
C331	C33	0.487400	0.340900	0.970700
C341	C34	0.490800	0.248400	0.995200
H181	H18	0.624500	0.250400	0.002400
Sm31	Sm3	0.316630	0.929460	0.567050
O131	O13	0.941100	0.504900	0.579300
Sm41	Sm4	0.237190	0.567910	0.450820
O141	O14	0.429800	0.537700	0.555300
O151	O15	0.563400	0.475800	0.628300
O161	O16	0.309300	0.551500	0.940300
O171	O17	0.416000	0.479600	0.897300
O181	O18	0.045400	0.581200	0.551400
O191	O19	0.850000	0.463100	0.830900
O201	O20	0.815300	0.519300	0.918100
O211	O21	0.562600	0.615500	0.454900
O221	O22	0.297200	0.657100	0.485500
O231	O23	0.332000	0.841100	0.525900
O241	O24	0.609400	0.881000	0.541100
N31	N3	0.411000	0.790400	0.730500
N41	N4	0.979000	0.795200	0.808500
C351	C35	0.904000	0.777700	0.742600
H191	H19	0.866200	0.800800	0.704800
C361	C36	0.877000	0.727000	0.725500
H201	H20	0.817900	0.717400	0.678200
C371	C37	0.938900	0.690400	0.779600
C381	C38	0.014000	0.709100	0.850900
H211	H21	0.049000	0.687000	0.890400
C391	C39	0.035000	0.761300	0.862300
H221	H22	0.091400	0.772800	0.909100
C401	C40	0.926000	0.635800	0.761800
C411	C41	0.953000	0.619800	0.689700
H231	H23	0.975000	0.643300	0.653800
C421	C42	0.946700	0.569000	0.672400
C431	C43	0.918400	0.533000	0.726400
H241	H24	0.917000	0.499000	0.714600
C441	C44	0.891700	0.549000	0.799300
C451	C45	0.897900	0.599800	0.816400
H251	H25	0.883400	0.610200	0.864400
C461	C46	0.853500	0.508300	0.852700
C471	C47	0.978900	0.550000	0.594800
C481	C48	0.348000	0.760500	0.671100
H261	H26	0.300300	0.775700	0.626000
C491	C49	0.353000	0.708400	0.674300
H271	H27	0.313100	0.689700	0.631300
C501	C50	0.415600	0.684300	0.741400
C511	C51	0.477000	0.715300	0.802900
H281	H28	0.520300	0.701000	0.849100
C521	C52	0.473000	0.767300	0.795600
H291	H29	0.514700	0.786800	0.837500
C531	C53	0.417200	0.628500	0.746800
C541	C54	0.443400	0.600300	0.684400
H301	H30	0.457400	0.616600	0.639900
C551	C55	0.449200	0.547400	0.687200
C561	C56	0.428200	0.523500	0.755000
H311	H31	0.436700	0.488700	0.758400
C571	C57	0.394800	0.551400	0.817100
C581	C58	0.393200	0.604000	0.814000
H321	H32	0.376300	0.622700	0.856100
C591	C59	0.480300	0.517500	0.619100
C601	C60	0.371600	0.526100	0.889900
C611	C61	0.477000	0.655000	0.480500
C621	C62	0.597400	0.701700	0.499000
C631	C63	0.799200	0.698500	0.512500
H331	H33	0.860500	0.667700	0.509400
C641	C64	0.906100	0.742000	0.530400
H341	H34	0.039700	0.739800	0.539800
C651	C65	0.818900	0.788800	0.534800
H351	H35	0.892900	0.817400	0.546600
C661	C66	0.616700	0.791700	0.520900
C671	C67	0.512600	0.840900	0.529300
C681	C68	0.509200	0.748400	0.504800
H361	H36	0.375500	0.750400	0.497600
Sm51	Sm5	0.316630	0.570540	0.067050
O251	O25	0.941100	0.995100	0.079300
Sm61	Sm6	0.237190	0.932090	0.950820
O261	O26	0.429800	0.962300	0.055300
O271	O27	0.563400	0.024200	0.128300
O281	O28	0.309300	0.948500	0.440300
O291	O29	0.416000	0.020400	0.397300
O301	O30	0.045400	0.918800	0.051400
O311	O31	0.850000	0.036900	0.330900
O321	O32	0.815300	0.980700	0.418100
O331	O33	0.562600	0.884500	0.954900
O341	O34	0.297200	0.842900	0.985500
O351	O35	0.332000	0.658900	0.025900
O361	O36	0.609400	0.619000	0.041100
N51	N5	0.411000	0.709600	0.230500
N61	N6	0.979000	0.704800	0.308500
C691	C69	0.904000	0.722300	0.242600
H371	H37	0.866200	0.699200	0.204800
C701	C70	0.877000	0.773000	0.225500
H381	H38	0.817900	0.782600	0.178200
C711	C71	0.938900	0.809600	0.279600
C721	C72	0.014000	0.790900	0.350900
H391	H39	0.049000	0.813000	0.390400
C731	C73	0.035000	0.738700	0.362300
H401	H40	0.091400	0.727200	0.409100
C741	C74	0.926000	0.864200	0.261800
C751	C75	0.953000	0.880200	0.189700
H411	H41	0.975000	0.856700	0.153800
C761	C76	0.946700	0.931000	0.172400
C771	C77	0.918400	0.967000	0.226400
H421	H42	0.917000	0.001000	0.214600
C781	C78	0.891700	0.951000	0.299300
C791	C79	0.897900	0.900200	0.316400
H431	H43	0.883400	0.889800	0.364400
C801	C80	0.853500	0.991700	0.352700
C811	C81	0.978900	0.950000	0.094800
C821	C82	0.348000	0.739500	0.171100
H441	H44	0.300300	0.724300	0.126000
C831	C83	0.353000	0.791600	0.174300
H451	H45	0.313100	0.810300	0.131300
C841	C84	0.415600	0.815700	0.241400
C851	C85	0.477000	0.784700	0.302900
H461	H46	0.520300	0.799000	0.349100
C861	C86	0.473000	0.732700	0.295600
H471	H47	0.514700	0.713200	0.337500
C871	C87	0.417200	0.871500	0.246800
C881	C88	0.443400	0.899700	0.184400
H481	H48	0.457400	0.883400	0.139900
C891	C89	0.449200	0.952600	0.187200
C901	C90	0.428200	0.976500	0.255000
H491	H49	0.436700	0.011300	0.258400
C911	C91	0.394800	0.948600	0.317100
C921	C92	0.393200	0.896000	0.314000
H501	H50	0.376300	0.877300	0.356100
C931	C93	0.480300	0.982500	0.119100
C941	C94	0.371600	0.973900	0.389900
C951	C95	0.477000	0.845000	0.980500
C961	C96	0.597400	0.798300	0.999000
C971	C97	0.799200	0.801500	0.012500
H511	H51	0.860500	0.832300	0.009400
C981	C98	0.906100	0.758000	0.030400
H521	H52	0.039700	0.760200	0.039800
C991	C99	0.818900	0.711200	0.034800
H531	H53	0.892900	0.682600	0.046600
C1001	C100	0.616700	0.708300	0.020900
C1011	C101	0.512600	0.659100	0.029300
C1021	C102	0.509200	0.751600	0.004800
H541	H54	0.375500	0.749600	0.997600
Sm71	Sm7	0.683370	0.070540	0.432950
O371	O37	0.058900	0.495100	0.420700
Sm81	Sm8	0.762810	0.432090	0.549180
O381	O38	0.570200	0.462300	0.444700
O391	O39	0.436600	0.524200	0.371700
O401	O40	0.690700	0.448500	0.059700
O411	O41	0.584000	0.520400	0.102700
O421	O42	0.954600	0.418800	0.448600
O431	O43	0.150000	0.536900	0.169100
O441	O44	0.184700	0.480700	0.081900
O451	O45	0.437400	0.384500	0.545100
O461	O46	0.702800	0.342900	0.514500
O471	O47	0.668000	0.158900	0.474100
O481	O48	0.390600	0.119000	0.458900
N71	N7	0.589000	0.209600	0.269500
N81	N8	0.021000	0.204800	0.191500
C1031	C103	0.096000	0.222300	0.257400
H551	H55	0.133800	0.199200	0.295200
C1041	C104	0.123000	0.273000	0.274500
H561	H56	0.182100	0.282600	0.321800
C1051	C105	0.061100	0.309600	0.220400
C1061	C106	0.986000	0.290900	0.149100
H571	H57	0.951000	0.313000	0.109600
C1071	C107	0.965000	0.238700	0.137700
H581	H58	0.908600	0.227200	0.090900
C1081	C108	0.074000	0.364200	0.238200
C1091	C109	0.047000	0.380200	0.310300
H591	H59	0.025000	0.356700	0.346200
C1101	C110	0.053300	0.431000	0.327600
C1111	C111	0.081600	0.467000	0.273600
H601	H60	0.083000	0.501000	0.285400
C1121	C112	0.108300	0.451000	0.200700
C1131	C113	0.102100	0.400200	0.183600
H611	H61	0.116600	0.389800	0.135600
C1141	C114	0.146500	0.491700	0.147300
C1151	C115	0.021100	0.450000	0.405200
C1161	C116	0.652000	0.239500	0.328900
H621	H62	0.699700	0.224300	0.374000
C1171	C117	0.647000	0.291600	0.325700
H631	H63	0.686900	0.310300	0.368700
C1181	C118	0.584400	0.315700	0.258600
C1191	C119	0.523000	0.284700	0.197100
H641	H64	0.479700	0.299000	0.150900
C1201	C120	0.527000	0.232700	0.204400
H651	H65	0.485300	0.213200	0.162500
C1211	C121	0.582800	0.371500	0.253200
C1221	C122	0.556600	0.399700	0.315600
H661	H66	0.542600	0.383400	0.360100
C1231	C123	0.550800	0.452600	0.312800
C1241	C124	0.571800	0.476500	0.245000
H671	H67	0.563300	0.511300	0.241600
C1251	C125	0.605200	0.448600	0.182900
C1261	C126	0.606800	0.396000	0.186000
H681	H68	0.623700	0.377300	0.143900
C1271	C127	0.519700	0.482500	0.380900
C1281	C128	0.628400	0.473900	0.110100
C1291	C129	0.523000	0.345000	0.519500
C1301	C130	0.402600	0.298300	0.501000
C1311	C131	0.200800	0.301500	0.487500
H691	H69	0.139500	0.332300	0.490600
C1321	C132	0.093900	0.258000	0.469600
H701	H70	0.960300	0.260200	0.460200
C1331	C133	0.181100	0.211200	0.465200
H711	H71	0.107100	0.182600	0.453400
C1341	C134	0.383300	0.208300	0.479100
C1351	C135	0.487400	0.159100	0.470700
C1361	C136	0.490800	0.251600	0.495200
H721	H72	0.624500	0.249600	0.502400
