data_VUQJUN01_clean_PM
_symmetry_space_group_name_H-M	'P1'
_cell_length_a	13.819000
_cell_length_b	15.382000
_cell_length_c	24.383000
_cell_angle_alpha	100.410000
_cell_angle_beta	95.250000
_cell_angle_gamma	101.090000
_symmetry_Int_Tables_number 1

loop_
_symmetry_equiv_pos_as_xyz
'x,y,z'

loop_
_atom_site_label
_atom_site_type_symbol
_atom_site_fract_x
_atom_site_fract_y
_atom_site_fract_z
Mn11	Mn1	0.174590	0.643620	0.323420
Mn21	Mn2	0.367850	0.556190	0.273850
Mn31	Mn3	0.608730	0.654040	0.324750
Mn41	Mn4	0.818660	0.698430	0.262610
Mn51	Mn5	0.825410	0.356380	0.676580
Mn61	Mn6	0.632150	0.443810	0.726150
Mn71	Mn7	0.391270	0.345960	0.675250
Mn81	Mn8	0.181340	0.301570	0.737390
H11	H1	0.287600	0.352500	0.312000
H21	H2	0.260700	0.199100	0.309800
H31	H3	0.980400	0.195800	0.334000
H41	H4	0.006300	0.347700	0.334200
H51	H5	0.238800	0.077600	0.351000
H61	H6	0.211400	0.924400	0.346500
H71	H7	0.932700	0.896800	0.284200
H81	H8	0.959700	0.049600	0.286700
H91	H9	0.218700	0.472600	0.101100
H101	H10	0.136400	0.445000	0.011500
H111	H11	0.934200	0.576100	0.069100
H121	H12	0.021100	0.611600	0.156300
H131	H13	0.549400	0.762900	0.442700
H141	H14	0.591400	0.897300	0.507700
H151	H15	0.368600	0.983300	0.435000
H161	H16	0.326500	0.850300	0.370500
H171	H17	0.685700	0.588200	0.135400
H181	H18	0.656700	0.532800	0.040200
H191	H19	0.370000	0.522700	0.044300
H201	H20	0.398200	0.569100	0.139100
H211	H21	0.693500	0.407400	0.314200
H221	H22	0.740800	0.272500	0.318000
H231	H23	0.459200	0.138300	0.264800
H241	H24	0.413900	0.273500	0.258800
H251	H25	0.753500	0.116400	0.259700
H261	H26	0.787600	0.976800	0.263400
H271	H27	0.561500	0.926500	0.350600
H281	H28	0.519600	0.058800	0.340500
H291	H29	0.763400	0.596600	0.484200
H301	H30	0.867100	0.533400	0.538000
H311	H31	0.037700	0.518300	0.416300
H321	H32	0.935100	0.581300	0.364300
H331	H33	0.712400	0.647500	0.688000
H341	H34	0.739300	0.800900	0.690200
H351	H35	0.019600	0.804200	0.666000
H361	H36	0.993700	0.652300	0.665800
H371	H37	0.761200	0.922400	0.649000
H381	H38	0.788600	0.075600	0.653500
H391	H39	0.067300	0.103200	0.715800
H401	H40	0.040300	0.950400	0.713300
H411	H41	0.781300	0.527400	0.898900
H421	H42	0.863600	0.555000	0.988500
H431	H43	0.065800	0.423900	0.930900
H441	H44	0.978900	0.388400	0.843700
H451	H45	0.450600	0.237100	0.557300
H461	H46	0.408600	0.102700	0.492300
H471	H47	0.631400	0.016700	0.565000
H481	H48	0.673500	0.149700	0.629500
H491	H49	0.314300	0.411800	0.864600
H501	H50	0.343300	0.467200	0.959800
H511	H51	0.630000	0.477300	0.955700
H521	H52	0.601800	0.430900	0.860900
H531	H53	0.306500	0.592600	0.685800
H541	H54	0.259200	0.727500	0.682000
H551	H55	0.540800	0.861700	0.735200
H561	H56	0.586100	0.726500	0.741200
H571	H57	0.246500	0.883600	0.740300
H581	H58	0.212400	0.023200	0.736600
H591	H59	0.438500	0.073500	0.649400
H601	H60	0.480400	0.941200	0.659500
H611	H61	0.236600	0.403400	0.515800
H621	H62	0.132900	0.466600	0.462000
H631	H63	0.962300	0.481700	0.583700
H641	H64	0.064900	0.418700	0.635700
C11	C1	0.149500	0.366900	0.322630
C21	C2	0.224700	0.321300	0.315900
C31	C3	0.208500	0.228700	0.314900
C41	C4	0.118500	0.180600	0.321100
C51	C5	0.042700	0.226700	0.328900
C61	C6	0.058600	0.318200	0.329300
C71	C7	0.101100	0.081100	0.319600
C81	C8	0.176000	0.041900	0.337200
C91	C9	0.159100	0.949300	0.334400
C101	C10	0.068800	0.893400	0.314810
C111	C11	0.995600	0.932500	0.297700
C121	C12	0.011900	0.025300	0.299600
C131	C13	0.166600	0.465900	0.322840
C141	C14	0.052900	0.792500	0.312710
C151	C15	0.130800	0.548900	0.138380
C161	C16	0.162700	0.496400	0.094500
C171	C17	0.112200	0.478800	0.040700
C181	C18	0.027000	0.509900	0.028900
C191	C19	0.993700	0.557300	0.074600
C201	C20	0.045200	0.577400	0.127200
C211	C21	0.186000	0.568800	0.196840
C221	C22	0.434500	0.793200	0.399470
C231	C23	0.512900	0.807400	0.440730
C241	C24	0.537900	0.888500	0.479810
C251	C25	0.486100	0.956400	0.478640
C261	C26	0.406100	0.939400	0.436900
C271	C27	0.380700	0.859700	0.398080
C281	C28	0.408300	0.708500	0.355200
C291	C29	0.545200	0.585100	0.147650
C301	C30	0.620700	0.573600	0.117230
C311	C31	0.603200	0.540400	0.059670
C321	C32	0.509900	0.518500	0.030900
C331	C33	0.434700	0.533500	0.062400
C341	C34	0.451700	0.563400	0.119300
C351	C35	0.563800	0.618800	0.209970
C361	C36	0.548700	0.354600	0.288900
C371	C37	0.646100	0.353500	0.304900
C381	C38	0.674300	0.272400	0.307500
C391	C39	0.604800	0.191100	0.294600
C401	C40	0.506400	0.192300	0.275400
C411	C41	0.479100	0.273300	0.272200
C421	C42	0.633800	0.104300	0.300400
C431	C43	0.713100	0.077500	0.277400
C441	C44	0.734300	0.993900	0.279900
C451	C45	0.676600	0.935600	0.306900
C461	C46	0.599100	0.963500	0.330700
C471	C47	0.575700	0.044000	0.326100
C481	C48	0.517100	0.443300	0.288800
C491	C49	0.694500	0.842700	0.308730
C501	C50	0.839200	0.597500	0.419610
C511	C51	0.820000	0.581800	0.470300
C521	C52	0.882600	0.543600	0.503100
C531	C53	0.967200	0.521100	0.483590
C541	C54	0.982900	0.535000	0.431300
C551	C55	0.920900	0.572600	0.399700
C561	C56	0.768900	0.635700	0.385170
C571	C57	0.850500	0.633100	0.677370
C581	C58	0.775300	0.678700	0.684100
C591	C59	0.791500	0.771300	0.685100
C601	C60	0.881500	0.819400	0.678900
C611	C61	0.957300	0.773300	0.671100
C621	C62	0.941400	0.681800	0.670700
C631	C63	0.898900	0.918900	0.680400
C641	C64	0.824000	0.958100	0.662800
C651	C65	0.840900	0.050700	0.665600
C661	C66	0.931200	0.106600	0.685190
C671	C67	0.004400	0.067500	0.702300
C681	C68	0.988100	0.974700	0.700400
C691	C69	0.833400	0.534100	0.677160
C701	C70	0.947100	0.207500	0.687290
C711	C71	0.869200	0.451100	0.861620
C721	C72	0.837300	0.503600	0.905500
C731	C73	0.887800	0.521200	0.959300
C741	C74	0.973000	0.490100	0.971100
C751	C75	0.006300	0.442700	0.925400
C761	C76	0.954800	0.422600	0.872800
C771	C77	0.814000	0.431200	0.803160
C781	C78	0.565500	0.206800	0.600530
C791	C79	0.487100	0.192600	0.559270
C801	C80	0.462100	0.111500	0.520190
C811	C81	0.513900	0.043600	0.521360
C821	C82	0.593900	0.060600	0.563100
C831	C83	0.619300	0.140300	0.601920
C841	C84	0.591700	0.291500	0.644800
C851	C85	0.454800	0.414900	0.852350
C861	C86	0.379300	0.426400	0.882770
C871	C87	0.396800	0.459600	0.940330
C881	C88	0.490100	0.481500	0.969100
C891	C89	0.565300	0.466500	0.937600
C901	C90	0.548300	0.436600	0.880700
C911	C91	0.436200	0.381200	0.790030
C921	C92	0.451300	0.645400	0.711100
C931	C93	0.353900	0.646500	0.695100
C941	C94	0.325700	0.727600	0.692500
C951	C95	0.395200	0.808900	0.705400
C961	C96	0.493600	0.807700	0.724600
C971	C97	0.520900	0.726700	0.727800
C981	C98	0.366200	0.895700	0.699600
C991	C99	0.286900	0.922500	0.722600
C1001	C100	0.265700	0.006100	0.720100
C1011	C101	0.323400	0.064400	0.693100
C1021	C102	0.400900	0.036500	0.669300
C1031	C103	0.424300	0.956000	0.673900
C1041	C104	0.482900	0.556700	0.711200
C1051	C105	0.305500	0.157300	0.691270
C1061	C106	0.160800	0.402500	0.580390
C1071	C107	0.180000	0.418200	0.529700
C1081	C108	0.117400	0.456400	0.496900
C1091	C109	0.032800	0.478900	0.516410
C1101	C110	0.017100	0.465000	0.568700
C1111	C111	0.079100	0.427400	0.600300
C1121	C112	0.231100	0.364300	0.614830
O11	O1	0.254400	0.508610	0.322740
O21	O2	0.095500	0.504800	0.323530
O31	O3	0.127300	0.764080	0.329510
O41	O4	0.970900	0.743280	0.294600
O51	O5	0.263600	0.538100	0.203210
O61	O6	0.149100	0.612530	0.234920
O71	O7	0.333540	0.694750	0.318310
O81	O8	0.462470	0.649600	0.354160
O91	O9	0.490770	0.625680	0.236560
O101	O10	0.650840	0.639140	0.234310
O111	O11	0.581000	0.512660	0.310490
O121	O12	0.429800	0.441390	0.268870
O131	O13	0.632100	0.791900	0.328560
O141	O14	0.770240	0.822070	0.288050
O151	O15	0.692500	0.654000	0.404670
O161	O16	0.785300	0.643000	0.335480
O171	O17	0.745600	0.491390	0.677260
O181	O18	0.904500	0.495200	0.676470
O191	O19	0.872700	0.235920	0.670490
O201	O20	0.029100	0.256720	0.705400
O211	O21	0.736400	0.461900	0.796790
O221	O22	0.850900	0.387470	0.765080
O231	O23	0.666460	0.305250	0.681690
O241	O24	0.537530	0.350400	0.645840
O251	O25	0.509230	0.374320	0.763440
O261	O26	0.349160	0.360860	0.765690
O271	O27	0.419000	0.487340	0.689510
O281	O28	0.570200	0.558610	0.731130
O291	O29	0.367900	0.208100	0.671440
O301	O30	0.229760	0.177930	0.711950
O311	O31	0.307500	0.346000	0.595330
O321	O32	0.214700	0.357000	0.664520
