data_VUQKUO_clean_PM
_symmetry_space_group_name_H-M	'P1'
_cell_length_a	13.957000
_cell_length_b	15.827000
_cell_length_c	25.704000
_cell_angle_alpha	90.000000
_cell_angle_beta	90.000000
_cell_angle_gamma	93.362000
_symmetry_Int_Tables_number 1

loop_
_symmetry_equiv_pos_as_xyz
'x,y,z'

loop_
_atom_site_label
_atom_site_type_symbol
_atom_site_fract_x
_atom_site_fract_y
_atom_site_fract_z
Cd11	Cd1	0.872790	0.995780	0.034600
Cd21	Cd2	0.624660	0.994050	0.968600
Cd31	Cd3	0.127210	0.504220	0.534600
Cd41	Cd4	0.375340	0.505950	0.468600
Cd51	Cd5	0.127210	0.004220	0.965400
Cd61	Cd6	0.375340	0.005950	0.031400
Cd71	Cd7	0.872790	0.495780	0.465400
Cd81	Cd8	0.624660	0.494050	0.531400
P11	P1	0.090780	0.303560	0.240690
P21	P2	0.665130	0.754600	0.264320
P31	P3	0.909220	0.196440	0.740690
P41	P4	0.334870	0.745400	0.764320
P51	P5	0.909220	0.696440	0.759310
P61	P6	0.334870	0.245400	0.735680
P71	P7	0.090780	0.803560	0.259310
P81	P8	0.665130	0.254600	0.235680
H11	H1	0.364700	0.902400	0.218700
H21	H2	0.393000	0.814700	0.240200
H31	H3	0.452500	0.858500	0.195000
H41	H4	0.408000	0.010100	0.268700
H51	H5	0.518100	0.023500	0.280300
H61	H6	0.449700	0.978400	0.321400
H71	H7	0.687900	0.895100	0.080100
H81	H8	0.603400	0.508100	0.307800
H91	H9	0.260600	0.520700	0.360000
H101	H10	0.286600	0.317900	0.438400
H111	H11	0.869800	0.211300	0.193800
H121	H12	0.546800	0.743700	0.352600
H131	H13	0.196300	0.241800	0.380900
H141	H14	0.891900	0.804400	0.203300
H151	H15	0.504000	0.456800	0.370900
H161	H16	0.131400	0.134600	0.167200
H171	H17	0.069800	0.059900	0.095400
H181	H18	0.814400	0.136400	0.123200
H191	H19	0.165900	0.449300	0.298700
H201	H20	0.633700	0.789900	0.139800
H211	H21	0.939700	0.897400	0.137700
H221	H22	0.449400	0.681900	0.414800
H231	H23	0.365900	0.331200	0.105100
H241	H24	0.281700	0.267100	0.122000
H251	H25	0.351200	0.308400	0.164000
H261	H26	0.321500	0.447500	0.078700
H271	H27	0.275300	0.508200	0.118500
H281	H28	0.210100	0.455600	0.079100
H291	H29	0.872200	0.556700	0.222600
H301	H30	0.920500	0.506600	0.267100
H311	H31	0.861700	0.457500	0.223500
H321	H32	0.951400	0.609200	0.165900
H331	H33	0.997400	0.546400	0.127300
H341	H34	0.062600	0.599900	0.166300
H351	H35	0.758500	0.017800	0.412200
H361	H36	0.651800	0.986000	0.401600
H371	H37	0.710100	0.037500	0.358800
H381	H38	0.861700	0.921400	0.409800
H391	H39	0.877800	0.878300	0.355800
H401	H40	0.818600	0.829300	0.399300
H411	H41	0.635300	0.597600	0.718700
H421	H42	0.607000	0.685300	0.740200
H431	H43	0.547500	0.641500	0.695000
H441	H44	0.592000	0.489900	0.768700
H451	H45	0.481900	0.476500	0.780300
H461	H46	0.550300	0.521600	0.821400
H471	H47	0.312100	0.604900	0.580100
H481	H48	0.396600	0.991900	0.807800
H491	H49	0.739400	0.979300	0.860000
H501	H50	0.713400	0.182100	0.938400
H511	H51	0.130200	0.288700	0.693800
H521	H52	0.453200	0.756300	0.852600
H531	H53	0.803700	0.258200	0.880900
H541	H54	0.108100	0.695600	0.703300
H551	H55	0.496000	0.043200	0.870900
H561	H56	0.868600	0.365400	0.667200
H571	H57	0.930200	0.440100	0.595400
H581	H58	0.185600	0.363600	0.623200
H591	H59	0.834100	0.050700	0.798700
H601	H60	0.366300	0.710100	0.639800
H611	H61	0.060300	0.602600	0.637700
H621	H62	0.550600	0.818100	0.914800
H631	H63	0.634100	0.168800	0.605100
H641	H64	0.718300	0.232900	0.622000
H651	H65	0.648800	0.191600	0.664000
H661	H66	0.678500	0.052500	0.578700
H671	H67	0.724700	0.991800	0.618500
H681	H68	0.789900	0.044400	0.579100
H691	H69	0.127800	0.943300	0.722600
H701	H70	0.079500	0.993400	0.767100
H711	H71	0.138300	0.042500	0.723500
H721	H72	0.048600	0.890800	0.665900
H731	H73	0.002600	0.953600	0.627300
H741	H74	0.937400	0.900100	0.666300
H751	H75	0.241500	0.482200	0.912200
H761	H76	0.348200	0.514000	0.901600
H771	H77	0.289900	0.462500	0.858800
H781	H78	0.138300	0.578600	0.909800
H791	H79	0.122200	0.621700	0.855800
H801	H80	0.181400	0.670700	0.899300
H811	H81	0.635300	0.097600	0.781300
H821	H82	0.607000	0.185300	0.759800
H831	H83	0.547500	0.141500	0.805000
H841	H84	0.592000	0.989900	0.731300
H851	H85	0.481900	0.976500	0.719700
H861	H86	0.550300	0.021600	0.678600
H871	H87	0.312100	0.104900	0.919900
H881	H88	0.396600	0.491900	0.692200
H891	H89	0.739400	0.479300	0.640000
H901	H90	0.713400	0.682100	0.561600
H911	H91	0.130200	0.788700	0.806200
H921	H92	0.453200	0.256300	0.647400
H931	H93	0.803700	0.758200	0.619100
H941	H94	0.108100	0.195600	0.796700
H951	H95	0.496000	0.543200	0.629100
H961	H96	0.868600	0.865400	0.832800
H971	H97	0.930200	0.940100	0.904600
H981	H98	0.185600	0.863600	0.876800
H991	H99	0.834100	0.550700	0.701300
H1001	H100	0.366300	0.210100	0.860200
H1011	H101	0.060300	0.102600	0.862300
H1021	H102	0.550600	0.318100	0.585200
H1031	H103	0.634100	0.668800	0.894900
H1041	H104	0.718300	0.732900	0.878000
H1051	H105	0.648800	0.691600	0.836000
H1061	H106	0.678500	0.552500	0.921300
H1071	H107	0.724700	0.491800	0.881500
H1081	H108	0.789900	0.544400	0.920900
H1091	H109	0.127800	0.443300	0.777400
H1101	H110	0.079500	0.493400	0.732900
H1111	H111	0.138300	0.542500	0.776500
H1121	H112	0.048600	0.390800	0.834100
H1131	H113	0.002600	0.453600	0.872700
H1141	H114	0.937400	0.400100	0.833700
H1151	H115	0.241500	0.982200	0.587800
H1161	H116	0.348200	0.014000	0.598400
H1171	H117	0.289900	0.962500	0.641200
H1181	H118	0.138300	0.078600	0.590200
H1191	H119	0.122200	0.121700	0.644200
H1201	H120	0.181400	0.170700	0.600700
H1211	H121	0.364700	0.402400	0.281300
H1221	H122	0.393000	0.314700	0.259800
H1231	H123	0.452500	0.358500	0.305000
H1241	H124	0.408000	0.510100	0.231300
H1251	H125	0.518100	0.523500	0.219700
H1261	H126	0.449700	0.478400	0.178600
H1271	H127	0.687900	0.395100	0.419900
H1281	H128	0.603400	0.008100	0.192200
H1291	H129	0.260600	0.020700	0.140000
H1301	H130	0.286600	0.817900	0.061600
H1311	H131	0.869800	0.711300	0.306200
H1321	H132	0.546800	0.243700	0.147400
H1331	H133	0.196300	0.741800	0.119100
H1341	H134	0.891900	0.304400	0.296700
H1351	H135	0.504000	0.956800	0.129100
H1361	H136	0.131400	0.634600	0.332800
H1371	H137	0.069800	0.559900	0.404600
H1381	H138	0.814400	0.636400	0.376800
H1391	H139	0.165900	0.949300	0.201300
H1401	H140	0.633700	0.289900	0.360200
H1411	H141	0.939700	0.397400	0.362300
H1421	H142	0.449400	0.181900	0.085200
H1431	H143	0.365900	0.831200	0.394900
H1441	H144	0.281700	0.767100	0.378000
H1451	H145	0.351200	0.808400	0.336000
H1461	H146	0.321500	0.947500	0.421300
H1471	H147	0.275300	0.008200	0.381500
H1481	H148	0.210100	0.955600	0.420900
H1491	H149	0.872200	0.056700	0.277400
H1501	H150	0.920500	0.006600	0.232900
H1511	H151	0.861700	0.957500	0.276500
H1521	H152	0.951400	0.109200	0.334100
H1531	H153	0.997400	0.046400	0.372700
H1541	H154	0.062600	0.099900	0.333700
H1551	H155	0.758500	0.517800	0.087800
H1561	H156	0.651800	0.486000	0.098400
H1571	H157	0.710100	0.537500	0.141200
H1581	H158	0.861700	0.421400	0.090200
H1591	H159	0.877800	0.378300	0.144200
H1601	H160	0.818600	0.329300	0.100700
C11	C1	0.417300	0.868000	0.226300
C21	C2	0.462100	0.986100	0.284900
C31	C3	0.731000	0.874200	0.103800
C41	C4	0.173800	0.335900	0.333000
C51	C5	0.571700	0.544900	0.329100
C61	C6	0.003800	0.177900	0.187800
C71	C7	0.248000	0.462700	0.364000
C81	C8	0.263200	0.345100	0.409400
C91	C9	0.911300	0.179700	0.174500
C101	C10	0.755500	0.789100	0.177500
C111	C11	0.539100	0.685100	0.355200
C121	C12	0.209200	0.299300	0.375200
C131	C13	0.848900	0.820100	0.177900
C141	C14	0.512300	0.515100	0.366500
C151	C15	0.066600	0.134400	0.158800
C161	C16	0.028500	0.089600	0.115900
C171	C17	0.185100	0.379600	0.172000
C181	C18	0.048200	0.440400	0.202000
C191	C19	0.585600	0.633900	0.322400
C201	C20	0.878700	0.134600	0.132300
C211	C21	0.191100	0.420800	0.326700
C221	C22	0.696600	0.812700	0.141200
C231	C23	0.876200	0.876100	0.138300
C241	C24	0.480400	0.647000	0.392000
C251	C25	0.319100	0.317600	0.131700
C261	C26	0.266700	0.455300	0.100400
C271	C27	0.903800	0.506200	0.230900
C281	C28	0.001100	0.570400	0.161600
C291	C29	0.690400	0.881100	0.325100
C301	C30	0.561200	0.870000	0.275700
C311	C31	0.714000	0.996500	0.386200
C321	C32	0.833400	0.883800	0.384000
C331	C33	0.582700	0.632000	0.726300
C341	C34	0.537900	0.513900	0.784900
C351	C35	0.269000	0.625800	0.603800
C361	C36	0.826200	0.164100	0.833000
C371	C37	0.428300	0.955100	0.829100
C381	C38	0.996200	0.322100	0.687800
C391	C39	0.752000	0.037300	0.864000
C401	C40	0.736800	0.154900	0.909400
C411	C41	0.088700	0.320300	0.674500
C421	C42	0.244500	0.710900	0.677500
C431	C43	0.460900	0.814900	0.855200
C441	C44	0.790800	0.200700	0.875200
C451	C45	0.151100	0.679900	0.677900
C461	C46	0.487700	0.984900	0.866500
C471	C47	0.933400	0.365600	0.658800
C481	C48	0.971500	0.410400	0.615900
C491	C49	0.814900	0.120400	0.672000
C501	C50	0.951800	0.059600	0.702000
C511	C51	0.414400	0.866100	0.822400
C521	C52	0.121300	0.365400	0.632300
C531	C53	0.808900	0.079200	0.826700
C541	C54	0.303400	0.687300	0.641200
C551	C55	0.123800	0.623900	0.638300
C561	C56	0.519600	0.853000	0.892000
C571	C57	0.680900	0.182400	0.631700
C581	C58	0.733300	0.044700	0.600400
C591	C59	0.096200	0.993800	0.730900
C601	C60	0.998900	0.929600	0.661600
C611	C61	0.309600	0.618900	0.825100
C621	C62	0.438800	0.630000	0.775700
C631	C63	0.286000	0.503500	0.886200
C641	C64	0.166600	0.616200	0.884000
C651	C65	0.582700	0.132000	0.773700
C661	C66	0.537900	0.013900	0.715100
C671	C67	0.269000	0.125800	0.896200
C681	C68	0.826200	0.664100	0.667000
C691	C69	0.428300	0.455100	0.670900
C701	C70	0.996200	0.822100	0.812200
C711	C71	0.752000	0.537300	0.636000
C721	C72	0.736800	0.654900	0.590600
C731	C73	0.088700	0.820300	0.825500
C741	C74	0.244500	0.210900	0.822500
C751	C75	0.460900	0.314900	0.644800
C761	C76	0.790800	0.700700	0.624800
C771	C77	0.151100	0.179900	0.822100
C781	C78	0.487700	0.484900	0.633500
C791	C79	0.933400	0.865600	0.841200
C801	C80	0.971500	0.910400	0.884100
C811	C81	0.814900	0.620400	0.828000
C821	C82	0.951800	0.559600	0.798000
C831	C83	0.414400	0.366100	0.677600
C841	C84	0.121300	0.865400	0.867700
C851	C85	0.808900	0.579200	0.673300
C861	C86	0.303400	0.187300	0.858800
C871	C87	0.123800	0.123900	0.861700
C881	C88	0.519600	0.353000	0.608000
C891	C89	0.680900	0.682400	0.868300
C901	C90	0.733300	0.544700	0.899600
C911	C91	0.096200	0.493800	0.769100
C921	C92	0.998900	0.429600	0.838400
C931	C93	0.309600	0.118900	0.674900
C941	C94	0.438800	0.130000	0.724300
C951	C95	0.286000	0.003500	0.613800
C961	C96	0.166600	0.116200	0.616000
C971	C97	0.417300	0.368000	0.273700
C981	C98	0.462100	0.486100	0.215100
C991	C99	0.731000	0.374200	0.396200
C1001	C100	0.173800	0.835900	0.167000
C1011	C101	0.571700	0.044900	0.170900
C1021	C102	0.003800	0.677900	0.312200
C1031	C103	0.248000	0.962700	0.136000
C1041	C104	0.263200	0.845100	0.090600
C1051	C105	0.911300	0.679700	0.325500
C1061	C106	0.755500	0.289100	0.322500
C1071	C107	0.539100	0.185100	0.144800
C1081	C108	0.209200	0.799300	0.124800
C1091	C109	0.848900	0.320100	0.322100
C1101	C110	0.512300	0.015100	0.133500
C1111	C111	0.066600	0.634400	0.341200
C1121	C112	0.028500	0.589600	0.384100
C1131	C113	0.185100	0.879600	0.328000
C1141	C114	0.048200	0.940400	0.298000
C1151	C115	0.585600	0.133900	0.177600
C1161	C116	0.878700	0.634600	0.367700
C1171	C117	0.191100	0.920800	0.173300
C1181	C118	0.696600	0.312700	0.358800
C1191	C119	0.876200	0.376100	0.361700
C1201	C120	0.480400	0.147000	0.108000
C1211	C121	0.319100	0.817600	0.368300
C1221	C122	0.266700	0.955300	0.399600
C1231	C123	0.903800	0.006200	0.269100
C1241	C124	0.001100	0.070400	0.338400
C1251	C125	0.690400	0.381100	0.174900
C1261	C126	0.561200	0.370000	0.224300
C1271	C127	0.714000	0.496500	0.113800
C1281	C128	0.833400	0.383800	0.116000
N11	N1	0.935500	0.087600	0.103100
N21	N2	0.818900	0.901100	0.101800
N31	N3	0.464500	0.564900	0.397700
N41	N4	0.284700	0.426600	0.403800
N51	N5	0.256300	0.387200	0.137400
N61	N6	0.989000	0.502800	0.200300
N71	N7	0.747000	0.917400	0.364600
N81	N8	0.477200	0.908800	0.262300
N91	N9	0.021800	0.378800	0.237000
N101	N10	0.180300	0.312000	0.204200
N111	N11	0.126300	0.443500	0.171500
N121	N12	0.727100	0.807500	0.305100
N131	N13	0.567300	0.798400	0.248900
N141	N14	0.606500	0.913700	0.310300
N151	N15	0.064500	0.412400	0.603100
N161	N16	0.181100	0.598900	0.601800
N171	N17	0.535500	0.935100	0.897700
N181	N18	0.715300	0.073400	0.903800
N191	N19	0.743700	0.112800	0.637400
N201	N20	0.011000	0.997200	0.700300
N211	N21	0.253000	0.582600	0.864600
N221	N22	0.522800	0.591200	0.762300
N231	N23	0.978200	0.121200	0.737000
N241	N24	0.819700	0.188000	0.704200
N251	N25	0.873700	0.056500	0.671500
N261	N26	0.272900	0.692500	0.805100
N271	N27	0.432700	0.701600	0.748900
N281	N28	0.393500	0.586300	0.810300
N291	N29	0.064500	0.912400	0.896900
N301	N30	0.181100	0.098900	0.898200
N311	N31	0.535500	0.435100	0.602300
N321	N32	0.715300	0.573400	0.596200
N331	N33	0.743700	0.612800	0.862600
N341	N34	0.011000	0.497200	0.799700
N351	N35	0.253000	0.082600	0.635400
N361	N36	0.522800	0.091200	0.737700
N371	N37	0.978200	0.621200	0.763000
N381	N38	0.819700	0.688000	0.795800
N391	N39	0.873700	0.556500	0.828500
N401	N40	0.272900	0.192500	0.694900
N411	N41	0.432700	0.201600	0.751100
N421	N42	0.393500	0.086300	0.689700
N431	N43	0.935500	0.587600	0.396900
N441	N44	0.818900	0.401100	0.398200
N451	N45	0.464500	0.064900	0.102300
N461	N46	0.284700	0.926600	0.096200
N471	N47	0.256300	0.887200	0.362600
N481	N48	0.989000	0.002800	0.299700
N491	N49	0.747000	0.417400	0.135400
N501	N50	0.477200	0.408800	0.237700
N511	N51	0.021800	0.878800	0.263000
N521	N52	0.180300	0.812000	0.295800
N531	N53	0.126300	0.943500	0.328500
N541	N54	0.727100	0.307500	0.194900
N551	N55	0.567300	0.298400	0.251100
N561	N56	0.606500	0.413700	0.189700
Cl11	Cl1	0.716600	0.078940	0.040260
Cl21	Cl2	0.768270	0.894330	0.969230
Cl31	Cl3	0.964970	0.087060	0.965120
Cl41	Cl4	0.511580	0.893670	0.027680
Cl51	Cl5	0.283400	0.421060	0.540260
Cl61	Cl6	0.231730	0.605670	0.469230
Cl71	Cl7	0.035030	0.412940	0.465120
Cl81	Cl8	0.488420	0.606330	0.527680
Cl91	Cl9	0.283400	0.921060	0.959740
Cl101	Cl10	0.231730	0.105670	0.030770
Cl111	Cl11	0.035030	0.912940	0.034880
Cl121	Cl12	0.488420	0.106330	0.972320
Cl131	Cl13	0.716600	0.578940	0.459740
Cl141	Cl14	0.768270	0.394330	0.530770
Cl151	Cl15	0.964970	0.587060	0.534880
Cl161	Cl16	0.511580	0.393670	0.472320
O11	O1	0.035700	0.212200	0.235700
O21	O2	0.118900	0.283900	0.299800
O31	O3	0.646000	0.658600	0.282000
O41	O4	0.723900	0.729500	0.215800
O51	O5	0.964300	0.287800	0.735700
O61	O6	0.881100	0.216100	0.799800
O71	O7	0.354000	0.841400	0.782000
O81	O8	0.276100	0.770500	0.715800
O91	O9	0.964300	0.787800	0.764300
O101	O10	0.881100	0.716100	0.700200
O111	O11	0.354000	0.341400	0.718000
O121	O12	0.276100	0.270500	0.784200
O131	O13	0.035700	0.712200	0.264300
O141	O14	0.118900	0.783900	0.200200
O151	O15	0.646000	0.158600	0.218000
O161	O16	0.723900	0.229500	0.284200
