data_VUSQIK_charged_PM
_symmetry_space_group_name_H-M	'P1'
_cell_length_a	19.043500
_cell_length_b	21.602300
_cell_length_c	22.229800
_cell_angle_alpha	90.000000
_cell_angle_beta	90.000000
_cell_angle_gamma	90.000000
_symmetry_Int_Tables_number 1

loop_
_symmetry_equiv_pos_as_xyz
'x,y,z'

loop_
_atom_site_label
_atom_site_type_symbol
_atom_site_fract_x
_atom_site_fract_y
_atom_site_fract_z
Ni11	Ni1	0.750000	0.750000	0.903820
Ni21	Ni2	0.250000	0.250000	0.596180
Ni31	Ni3	0.250000	0.250000	0.096180
Ni41	Ni4	0.750000	0.750000	0.403820
Sb11	Sb1	0.965410	0.988670	0.036820
Sb21	Sb2	0.534590	0.511330	0.036820
Sb31	Sb3	0.034590	0.488670	0.463180
Sb41	Sb4	0.465410	0.011330	0.463180
Sb51	Sb5	0.034590	0.011330	0.963180
Sb61	Sb6	0.465410	0.488670	0.963180
Sb71	Sb7	0.965410	0.511330	0.536820
Sb81	Sb8	0.534590	0.988670	0.536820
H11	H1	0.306200	0.977600	0.818900
H21	H2	0.487500	0.776600	0.876700
H31	H3	0.591200	0.728900	0.892000
H41	H4	0.694000	0.884900	0.888500
H51	H5	0.591100	0.934300	0.864600
H61	H6	0.495900	0.961500	0.801900
H71	H7	0.402100	0.015800	0.778300
H81	H8	0.288200	0.894100	0.874200
H91	H9	0.393400	0.838600	0.900400
H101	H10	0.796000	0.669300	0.303400
H111	H11	0.800800	0.667900	0.199500
H121	H12	0.845900	0.717100	0.006600
H131	H13	0.847900	0.714800	0.109000
H141	H14	0.193800	0.522400	0.818900
H151	H15	0.012500	0.723400	0.876700
H161	H16	0.908800	0.771100	0.892000
H171	H17	0.806000	0.615100	0.888500
H181	H18	0.908900	0.565700	0.864600
H191	H19	0.004100	0.538500	0.801900
H201	H20	0.097900	0.484200	0.778300
H211	H21	0.211800	0.605900	0.874200
H221	H22	0.106600	0.661400	0.900400
H231	H23	0.704000	0.830700	0.303400
H241	H24	0.699200	0.832100	0.199500
H251	H25	0.654100	0.782900	0.006600
H261	H26	0.652100	0.785200	0.109000
H271	H27	0.693800	0.477600	0.681100
H281	H28	0.512500	0.276600	0.623300
H291	H29	0.408800	0.228900	0.608000
H301	H30	0.306000	0.384900	0.611500
H311	H31	0.408900	0.434300	0.635400
H321	H32	0.504100	0.461500	0.698100
H331	H33	0.597900	0.515800	0.721700
H341	H34	0.711800	0.394100	0.625800
H351	H35	0.606600	0.338600	0.599600
H361	H36	0.204000	0.169300	0.196600
H371	H37	0.199200	0.167900	0.300500
H381	H38	0.154100	0.217100	0.493400
H391	H39	0.152100	0.214800	0.391000
H401	H40	0.806200	0.022400	0.681100
H411	H41	0.987500	0.223400	0.623300
H421	H42	0.091200	0.271100	0.608000
H431	H43	0.194000	0.115100	0.611500
H441	H44	0.091100	0.065700	0.635400
H451	H45	0.995900	0.038500	0.698100
H461	H46	0.902100	0.984200	0.721700
H471	H47	0.788200	0.105900	0.625800
H481	H48	0.893400	0.161400	0.599600
H491	H49	0.296000	0.330700	0.196600
H501	H50	0.300800	0.332100	0.300500
H511	H51	0.345900	0.282900	0.493400
H521	H52	0.347900	0.285200	0.391000
H531	H53	0.693800	0.022400	0.181100
H541	H54	0.512500	0.223400	0.123300
H551	H55	0.408800	0.271100	0.108000
H561	H56	0.306000	0.115100	0.111500
H571	H57	0.408900	0.065700	0.135400
H581	H58	0.504100	0.038500	0.198100
H591	H59	0.597900	0.984200	0.221700
H601	H60	0.711800	0.105900	0.125800
H611	H61	0.606600	0.161400	0.099600
H621	H62	0.204000	0.330700	0.696600
H631	H63	0.199200	0.332100	0.800500
H641	H64	0.154100	0.282900	0.993400
H651	H65	0.152100	0.285200	0.891000
H661	H66	0.806200	0.477600	0.181100
H671	H67	0.987500	0.276600	0.123300
H681	H68	0.091200	0.228900	0.108000
H691	H69	0.194000	0.384900	0.111500
H701	H70	0.091100	0.434300	0.135400
H711	H71	0.995900	0.461500	0.198100
H721	H72	0.902100	0.515800	0.221700
H731	H73	0.788200	0.394100	0.125800
H741	H74	0.893400	0.338600	0.099600
H751	H75	0.296000	0.169300	0.696600
H761	H76	0.300800	0.167900	0.800500
H771	H77	0.345900	0.217100	0.993400
H781	H78	0.347900	0.214800	0.891000
H791	H79	0.306200	0.522400	0.318900
H801	H80	0.487500	0.723400	0.376700
H811	H81	0.591200	0.771100	0.392000
H821	H82	0.694000	0.615100	0.388500
H831	H83	0.591100	0.565700	0.364600
H841	H84	0.495900	0.538500	0.301900
H851	H85	0.402100	0.484200	0.278300
H861	H86	0.288200	0.605900	0.374200
H871	H87	0.393400	0.661400	0.400400
H881	H88	0.796000	0.830700	0.803400
H891	H89	0.800800	0.832100	0.699500
H901	H90	0.845900	0.782900	0.506600
H911	H91	0.847900	0.785200	0.609000
H921	H92	0.193800	0.977600	0.318900
H931	H93	0.012500	0.776600	0.376700
H941	H94	0.908800	0.728900	0.392000
H951	H95	0.806000	0.884900	0.388500
H961	H96	0.908900	0.934300	0.364600
H971	H97	0.004100	0.961500	0.301900
H981	H98	0.097900	0.015800	0.278300
H991	H99	0.211800	0.894100	0.374200
H1001	H100	0.106600	0.838600	0.400400
H1011	H101	0.704000	0.669300	0.803400
H1021	H102	0.699200	0.667900	0.699500
H1031	H103	0.654100	0.717100	0.506600
H1041	H104	0.652100	0.714800	0.609000
W11	W1	0.839290	0.892420	0.960760
W21	W2	0.770780	0.935870	0.091330
W31	W3	0.796510	0.038800	0.981520
W41	W4	0.902800	0.136850	0.086800
W51	W5	0.921350	0.869200	0.174440
W61	W6	0.990820	0.822280	0.044590
W71	W7	0.964930	0.924100	0.839440
W81	W8	0.084490	0.909460	0.137020
W91	W9	0.873830	0.033610	0.195890
W101	W10	0.660710	0.607580	0.960760
W111	W11	0.729220	0.564130	0.091330
W121	W12	0.703490	0.461200	0.981520
W131	W13	0.597200	0.363150	0.086800
W141	W14	0.578650	0.630800	0.174440
W151	W15	0.509180	0.677720	0.044590
W161	W16	0.535070	0.575900	0.839440
W171	W17	0.415510	0.590540	0.137020
W181	W18	0.626170	0.466390	0.195890
W191	W19	0.160710	0.392420	0.539240
W201	W20	0.229220	0.435870	0.408670
W211	W21	0.203490	0.538800	0.518480
W221	W22	0.097200	0.636850	0.413200
W231	W23	0.078650	0.369200	0.325560
W241	W24	0.009180	0.322280	0.455410
W251	W25	0.035070	0.424100	0.660560
W261	W26	0.915510	0.409460	0.362980
W271	W27	0.126170	0.533610	0.304110
W281	W28	0.339290	0.107580	0.539240
W291	W29	0.270780	0.064130	0.408670
W301	W30	0.296510	0.961200	0.518480
W311	W31	0.402800	0.863150	0.413200
W321	W32	0.421350	0.130800	0.325560
W331	W33	0.490820	0.177720	0.455410
W341	W34	0.464930	0.075900	0.660560
W351	W35	0.584490	0.090540	0.362980
W361	W36	0.373830	0.966390	0.304110
W371	W37	0.160710	0.107580	0.039240
W381	W38	0.229220	0.064130	0.908670
W391	W39	0.203490	0.961200	0.018480
W401	W40	0.097200	0.863150	0.913200
W411	W41	0.078650	0.130800	0.825560
W421	W42	0.009180	0.177720	0.955410
W431	W43	0.035070	0.075900	0.160560
W441	W44	0.915510	0.090540	0.862980
W451	W45	0.126170	0.966390	0.804110
W461	W46	0.339290	0.392420	0.039240
W471	W47	0.270780	0.435870	0.908670
W481	W48	0.296510	0.538800	0.018480
W491	W49	0.402800	0.636850	0.913200
W501	W50	0.421350	0.369200	0.825560
W511	W51	0.490820	0.322280	0.955410
W521	W52	0.464930	0.424100	0.160560
W531	W53	0.584490	0.409460	0.862980
W541	W54	0.373830	0.533610	0.804110
W551	W55	0.839290	0.607580	0.460760
W561	W56	0.770780	0.564130	0.591330
W571	W57	0.796510	0.461200	0.481520
W581	W58	0.902800	0.363150	0.586800
W591	W59	0.921350	0.630800	0.674440
W601	W60	0.990820	0.677720	0.544590
W611	W61	0.964930	0.575900	0.339440
W621	W62	0.084490	0.590540	0.637020
W631	W63	0.873830	0.466390	0.695890
W641	W64	0.660710	0.892420	0.460760
W651	W65	0.729220	0.935870	0.591330
W661	W66	0.703490	0.038800	0.481520
W671	W67	0.597200	0.136850	0.586800
W681	W68	0.578650	0.869200	0.674440
W691	W69	0.509180	0.822280	0.544590
W701	W70	0.535070	0.924100	0.339440
W711	W71	0.415510	0.909460	0.637020
W721	W72	0.626170	0.033610	0.695890
C11	C1	0.529100	0.865100	0.868900
C21	C2	0.528900	0.799300	0.878100
C31	C3	0.591200	0.771800	0.889000
C41	C4	0.652300	0.862500	0.885900
C51	C5	0.589500	0.892000	0.872100
C61	C6	0.459200	0.894700	0.853300
C71	C7	0.453000	0.947700	0.817600
C81	C8	0.401000	0.981000	0.802500
C91	C9	0.332500	0.906000	0.861000
C101	C10	0.395200	0.874000	0.876000
C111	C11	0.777600	0.702500	0.281900
C121	C12	0.780000	0.700800	0.219700
C131	C13	0.806500	0.730400	0.027600
C141	C14	0.808300	0.729200	0.088900
C151	C15	0.970900	0.634900	0.868900
C161	C16	0.971100	0.700700	0.878100
C171	C17	0.908800	0.728200	0.889000
C181	C18	0.847700	0.637500	0.885900
C191	C19	0.910500	0.608000	0.872100
C201	C20	0.040800	0.605300	0.853300
C211	C21	0.047000	0.552300	0.817600
C221	C22	0.099000	0.519000	0.802500
C231	C23	0.167500	0.594000	0.861000
C241	C24	0.104800	0.626000	0.876000
C251	C25	0.722400	0.797500	0.281900
C261	C26	0.720000	0.799200	0.219700
C271	C27	0.693500	0.769600	0.027600
C281	C28	0.691700	0.770800	0.088900
C291	C29	0.470900	0.365100	0.631100
C301	C30	0.471100	0.299300	0.621900
C311	C31	0.408800	0.271800	0.611000
C321	C32	0.347700	0.362500	0.614100
C331	C33	0.410500	0.392000	0.627900
C341	C34	0.540800	0.394700	0.646700
C351	C35	0.547000	0.447700	0.682400
C361	C36	0.599000	0.481000	0.697500
C371	C37	0.667500	0.406000	0.639000
C381	C38	0.604800	0.374000	0.624000
C391	C39	0.222400	0.202500	0.218100
C401	C40	0.220000	0.200800	0.280300
C411	C41	0.193500	0.230400	0.472400
C421	C42	0.191700	0.229200	0.411100
C431	C43	0.029100	0.134900	0.631100
C441	C44	0.028900	0.200700	0.621900
C451	C45	0.091200	0.228200	0.611000
C461	C46	0.152300	0.137500	0.614100
C471	C47	0.089500	0.108000	0.627900
C481	C48	0.959200	0.105300	0.646700
C491	C49	0.953000	0.052300	0.682400
C501	C50	0.901000	0.019000	0.697500
C511	C51	0.832500	0.094000	0.639000
C521	C52	0.895200	0.126000	0.624000
C531	C53	0.277600	0.297500	0.218100
C541	C54	0.280000	0.299200	0.280300
C551	C55	0.306500	0.269600	0.472400
C561	C56	0.308300	0.270800	0.411100
C571	C57	0.470900	0.134900	0.131100
C581	C58	0.471100	0.200700	0.121900
C591	C59	0.408800	0.228200	0.111000
C601	C60	0.347700	0.137500	0.114100
C611	C61	0.410500	0.108000	0.127900
C621	C62	0.540800	0.105300	0.146700
C631	C63	0.547000	0.052300	0.182400
C641	C64	0.599000	0.019000	0.197500
C651	C65	0.667500	0.094000	0.139000
C661	C66	0.604800	0.126000	0.124000
C671	C67	0.222400	0.297500	0.718100
C681	C68	0.220000	0.299200	0.780300
C691	C69	0.193500	0.269600	0.972400
C701	C70	0.191700	0.270800	0.911100
C711	C71	0.029100	0.365100	0.131100
C721	C72	0.028900	0.299300	0.121900
C731	C73	0.091200	0.271800	0.111000
C741	C74	0.152300	0.362500	0.114100
C751	C75	0.089500	0.392000	0.127900
C761	C76	0.959200	0.394700	0.146700
C771	C77	0.953000	0.447700	0.182400
C781	C78	0.901000	0.481000	0.197500
C791	C79	0.832500	0.406000	0.139000
C801	C80	0.895200	0.374000	0.124000
C811	C81	0.277600	0.202500	0.718100
C821	C82	0.280000	0.200800	0.780300
C831	C83	0.306500	0.230400	0.972400
C841	C84	0.308300	0.229200	0.911100
C851	C85	0.529100	0.634900	0.368900
C861	C86	0.528900	0.700700	0.378100
C871	C87	0.591200	0.728200	0.389000
C881	C88	0.652300	0.637500	0.385900
C891	C89	0.589500	0.608000	0.372100
C901	C90	0.459200	0.605300	0.353300
C911	C91	0.453000	0.552300	0.317600
C921	C92	0.401000	0.519000	0.302500
C931	C93	0.332500	0.594000	0.361000
C941	C94	0.395200	0.626000	0.376000
C951	C95	0.777600	0.797500	0.781900
C961	C96	0.780000	0.799200	0.719700
C971	C97	0.806500	0.769600	0.527600
C981	C98	0.808300	0.770800	0.588900
C991	C99	0.970900	0.865100	0.368900
C1001	C100	0.971100	0.799300	0.378100
C1011	C101	0.908800	0.771800	0.389000
C1021	C102	0.847700	0.862500	0.385900
C1031	C103	0.910500	0.892000	0.372100
C1041	C104	0.040800	0.894700	0.353300
C1051	C105	0.047000	0.947700	0.317600
C1061	C106	0.099000	0.981000	0.302500
C1071	C107	0.167500	0.906000	0.361000
C1081	C108	0.104800	0.874000	0.376000
C1091	C109	0.722400	0.702500	0.781900
C1101	C110	0.720000	0.700800	0.719700
C1111	C111	0.693500	0.730400	0.527600
C1121	C112	0.691700	0.729200	0.588900
C1131	C113	0.750000	0.750000	0.188500
C1141	C114	0.750000	0.750000	0.121100
C1151	C115	0.250000	0.250000	0.311500
C1161	C116	0.250000	0.250000	0.378900
C1171	C117	0.250000	0.250000	0.811500
C1181	C118	0.250000	0.250000	0.878900
C1191	C119	0.750000	0.750000	0.688500
C1201	C120	0.750000	0.750000	0.621100
N11	N1	0.651700	0.800000	0.895600
N21	N2	0.344000	0.956900	0.826600
N31	N3	0.848300	0.700000	0.895600
N41	N4	0.156000	0.543100	0.826600
N51	N5	0.348300	0.300000	0.604400
N61	N6	0.656000	0.456900	0.673400
N71	N7	0.151700	0.200000	0.604400
N81	N8	0.844000	0.043100	0.673400
N91	N9	0.348300	0.200000	0.104400
N101	N10	0.656000	0.043100	0.173400
N111	N11	0.151700	0.300000	0.104400
N121	N12	0.844000	0.456900	0.173400
N131	N13	0.651700	0.700000	0.395600
N141	N14	0.344000	0.543100	0.326600
N151	N15	0.848300	0.800000	0.395600
N161	N16	0.156000	0.956900	0.326600
N171	N17	0.750000	0.750000	0.995500
N181	N18	0.750000	0.750000	0.312300
N191	N19	0.250000	0.250000	0.504500
N201	N20	0.250000	0.250000	0.187700
N211	N21	0.250000	0.250000	0.004500
N221	N22	0.250000	0.250000	0.687700
N231	N23	0.750000	0.750000	0.495500
N241	N24	0.750000	0.750000	0.812300
O11	O1	0.835800	0.885100	0.130600
O21	O2	0.863500	0.966800	0.027100
O31	O3	0.804300	0.836200	0.912400
O41	O4	0.832000	0.095700	0.038900
O51	O5	0.736700	0.000100	0.041800
O61	O6	0.979000	0.915500	0.092300
O71	O7	0.013800	0.852500	0.864500
O81	O8	0.785400	0.961500	0.935100
O91	O9	0.802700	0.999100	0.146100
O101	O10	0.074500	0.831700	0.092400
O111	O11	0.852900	0.109900	0.160400
O121	O12	0.915800	0.921700	0.915200
O131	O13	0.692200	0.917200	0.124200
O141	O14	0.036100	0.939400	0.779500
O151	O15	0.768500	0.883200	0.023100
O161	O16	0.942500	0.040300	0.109700
O171	O17	0.904200	0.844200	0.006300
O181	O18	0.879600	0.054300	0.933800
O191	O19	0.905000	0.891100	0.792400
O201	O20	0.017200	0.875200	0.195800
O211	O21	0.002600	0.748600	0.021500
O221	O22	0.942800	0.804300	0.118500
O231	O23	0.159400	0.893000	0.175800
O241	O24	0.036900	0.866500	0.982600
O251	O25	0.874900	0.212100	0.085000
O261	O26	0.908100	0.951900	0.202200
O271	O27	0.935300	0.009700	0.834800
O281	O28	0.735700	0.083700	0.945100
O291	O29	0.893200	0.826100	0.231900
O301	O30	0.829800	0.043500	0.261700
O311	O31	0.664200	0.614900	0.130600
O321	O32	0.636500	0.533200	0.027100
O331	O33	0.695700	0.663800	0.912400
O341	O34	0.668000	0.404300	0.038900
O351	O35	0.763300	0.499900	0.041800
O361	O36	0.521000	0.584500	0.092300
O371	O37	0.486200	0.647500	0.864500
O381	O38	0.714600	0.538500	0.935100
O391	O39	0.697300	0.500900	0.146100
O401	O40	0.425500	0.668300	0.092400
O411	O41	0.647100	0.390100	0.160400
O421	O42	0.584200	0.578300	0.915200
O431	O43	0.807800	0.582800	0.124200
O441	O44	0.463900	0.560600	0.779500
O451	O45	0.731500	0.616800	0.023100
O461	O46	0.557500	0.459700	0.109700
O471	O47	0.595800	0.655800	0.006300
O481	O48	0.620400	0.445700	0.933800
O491	O49	0.595000	0.608900	0.792400
O501	O50	0.482800	0.624800	0.195800
O511	O51	0.497400	0.751400	0.021500
O521	O52	0.557200	0.695700	0.118500
O531	O53	0.340600	0.607000	0.175800
O541	O54	0.463100	0.633500	0.982600
O551	O55	0.625100	0.287900	0.085000
O561	O56	0.591900	0.548100	0.202200
O571	O57	0.564700	0.490300	0.834800
O581	O58	0.764300	0.416300	0.945100
O591	O59	0.606800	0.673900	0.231900
O601	O60	0.670200	0.456500	0.261700
O611	O61	0.164200	0.385100	0.369400
O621	O62	0.136500	0.466800	0.472900
O631	O63	0.195700	0.336200	0.587600
O641	O64	0.168000	0.595700	0.461100
O651	O65	0.263300	0.500100	0.458200
O661	O66	0.021000	0.415500	0.407700
O671	O67	0.986200	0.352500	0.635500
O681	O68	0.214600	0.461500	0.564900
O691	O69	0.197300	0.499100	0.353900
O701	O70	0.925500	0.331700	0.407600
O711	O71	0.147100	0.609900	0.339600
O721	O72	0.084200	0.421700	0.584800
O731	O73	0.307800	0.417200	0.375800
O741	O74	0.963900	0.439400	0.720500
O751	O75	0.231500	0.383200	0.476900
O761	O76	0.057500	0.540300	0.390300
O771	O77	0.095800	0.344200	0.493700
O781	O78	0.120400	0.554300	0.566200
O791	O79	0.095000	0.391100	0.707600
O801	O80	0.982800	0.375200	0.304200
O811	O81	0.997400	0.248600	0.478500
O821	O82	0.057200	0.304300	0.381500
O831	O83	0.840600	0.393000	0.324200
O841	O84	0.963100	0.366500	0.517400
O851	O85	0.125100	0.712100	0.415000
O861	O86	0.091900	0.451900	0.297800
O871	O87	0.064700	0.509700	0.665200
O881	O88	0.264300	0.583700	0.554900
O891	O89	0.106800	0.326100	0.268100
O901	O90	0.170200	0.543500	0.238300
O911	O91	0.335800	0.114900	0.369400
O921	O92	0.363500	0.033200	0.472900
O931	O93	0.304300	0.163800	0.587600
O941	O94	0.332000	0.904300	0.461100
O951	O95	0.236700	0.999900	0.458200
O961	O96	0.479000	0.084500	0.407700
O971	O97	0.513800	0.147500	0.635500
O981	O98	0.285400	0.038500	0.564900
O991	O99	0.302700	0.000900	0.353900
O1001	O100	0.574500	0.168300	0.407600
O1011	O101	0.352900	0.890100	0.339600
O1021	O102	0.415800	0.078300	0.584800
O1031	O103	0.192200	0.082800	0.375800
O1041	O104	0.536100	0.060600	0.720500
O1051	O105	0.268500	0.116800	0.476900
O1061	O106	0.442500	0.959700	0.390300
O1071	O107	0.404200	0.155800	0.493700
O1081	O108	0.379600	0.945700	0.566200
O1091	O109	0.405000	0.108900	0.707600
O1101	O110	0.517200	0.124800	0.304200
O1111	O111	0.502600	0.251400	0.478500
O1121	O112	0.442800	0.195700	0.381500
O1131	O113	0.659400	0.107000	0.324200
O1141	O114	0.536900	0.133500	0.517400
O1151	O115	0.374900	0.787900	0.415000
O1161	O116	0.408100	0.048100	0.297800
O1171	O117	0.435300	0.990300	0.665200
O1181	O118	0.235700	0.916300	0.554900
O1191	O119	0.393200	0.173900	0.268100
O1201	O120	0.329800	0.956500	0.238300
O1211	O121	0.164200	0.114900	0.869400
O1221	O122	0.136500	0.033200	0.972900
O1231	O123	0.195700	0.163800	0.087600
O1241	O124	0.168000	0.904300	0.961100
O1251	O125	0.263300	0.999900	0.958200
O1261	O126	0.021000	0.084500	0.907700
O1271	O127	0.986200	0.147500	0.135500
O1281	O128	0.214600	0.038500	0.064900
O1291	O129	0.197300	0.000900	0.853900
O1301	O130	0.925500	0.168300	0.907600
O1311	O131	0.147100	0.890100	0.839600
O1321	O132	0.084200	0.078300	0.084800
O1331	O133	0.307800	0.082800	0.875800
O1341	O134	0.963900	0.060600	0.220500
O1351	O135	0.231500	0.116800	0.976900
O1361	O136	0.057500	0.959700	0.890300
O1371	O137	0.095800	0.155800	0.993700
O1381	O138	0.120400	0.945700	0.066200
O1391	O139	0.095000	0.108900	0.207600
O1401	O140	0.982800	0.124800	0.804200
O1411	O141	0.997400	0.251400	0.978500
O1421	O142	0.057200	0.195700	0.881500
O1431	O143	0.840600	0.107000	0.824200
O1441	O144	0.963100	0.133500	0.017400
O1451	O145	0.125100	0.787900	0.915000
O1461	O146	0.091900	0.048100	0.797800
O1471	O147	0.064700	0.990300	0.165200
O1481	O148	0.264300	0.916300	0.054900
O1491	O149	0.106800	0.173900	0.768100
O1501	O150	0.170200	0.956500	0.738300
O1511	O151	0.335800	0.385100	0.869400
O1521	O152	0.363500	0.466800	0.972900
O1531	O153	0.304300	0.336200	0.087600
O1541	O154	0.332000	0.595700	0.961100
O1551	O155	0.236700	0.500100	0.958200
O1561	O156	0.479000	0.415500	0.907700
O1571	O157	0.513800	0.352500	0.135500
O1581	O158	0.285400	0.461500	0.064900
O1591	O159	0.302700	0.499100	0.853900
O1601	O160	0.574500	0.331700	0.907600
O1611	O161	0.352900	0.609900	0.839600
O1621	O162	0.415800	0.421700	0.084800
O1631	O163	0.192200	0.417200	0.875800
O1641	O164	0.536100	0.439400	0.220500
O1651	O165	0.268500	0.383200	0.976900
O1661	O166	0.442500	0.540300	0.890300
O1671	O167	0.404200	0.344200	0.993700
O1681	O168	0.379600	0.554300	0.066200
O1691	O169	0.405000	0.391100	0.207600
O1701	O170	0.517200	0.375200	0.804200
O1711	O171	0.502600	0.248600	0.978500
O1721	O172	0.442800	0.304300	0.881500
O1731	O173	0.659400	0.393000	0.824200
O1741	O174	0.536900	0.366500	0.017400
O1751	O175	0.374900	0.712100	0.915000
O1761	O176	0.408100	0.451900	0.797800
O1771	O177	0.435300	0.509700	0.165200
O1781	O178	0.235700	0.583700	0.054900
O1791	O179	0.393200	0.326100	0.768100
O1801	O180	0.329800	0.543500	0.738300
O1811	O181	0.835800	0.614900	0.630600
O1821	O182	0.863500	0.533200	0.527100
O1831	O183	0.804300	0.663800	0.412400
O1841	O184	0.832000	0.404300	0.538900
O1851	O185	0.736700	0.499900	0.541800
O1861	O186	0.979000	0.584500	0.592300
O1871	O187	0.013800	0.647500	0.364500
O1881	O188	0.785400	0.538500	0.435100
O1891	O189	0.802700	0.500900	0.646100
O1901	O190	0.074500	0.668300	0.592400
O1911	O191	0.852900	0.390100	0.660400
O1921	O192	0.915800	0.578300	0.415200
O1931	O193	0.692200	0.582800	0.624200
O1941	O194	0.036100	0.560600	0.279500
O1951	O195	0.768500	0.616800	0.523100
O1961	O196	0.942500	0.459700	0.609700
O1971	O197	0.904200	0.655800	0.506300
O1981	O198	0.879600	0.445700	0.433800
O1991	O199	0.905000	0.608900	0.292400
O2001	O200	0.017200	0.624800	0.695800
O2011	O201	0.002600	0.751400	0.521500
O2021	O202	0.942800	0.695700	0.618500
O2031	O203	0.159400	0.607000	0.675800
O2041	O204	0.036900	0.633500	0.482600
O2051	O205	0.874900	0.287900	0.585000
O2061	O206	0.908100	0.548100	0.702200
O2071	O207	0.935300	0.490300	0.334800
O2081	O208	0.735700	0.416300	0.445100
O2091	O209	0.893200	0.673900	0.731900
O2101	O210	0.829800	0.456500	0.761700
O2111	O211	0.664200	0.885100	0.630600
O2121	O212	0.636500	0.966800	0.527100
O2131	O213	0.695700	0.836200	0.412400
O2141	O214	0.668000	0.095700	0.538900
O2151	O215	0.763300	0.000100	0.541800
O2161	O216	0.521000	0.915500	0.592300
O2171	O217	0.486200	0.852500	0.364500
O2181	O218	0.714600	0.961500	0.435100
O2191	O219	0.697300	0.999100	0.646100
O2201	O220	0.425500	0.831700	0.592400
O2211	O221	0.647100	0.109900	0.660400
O2221	O222	0.584200	0.921700	0.415200
O2231	O223	0.807800	0.917200	0.624200
O2241	O224	0.463900	0.939400	0.279500
O2251	O225	0.731500	0.883200	0.523100
O2261	O226	0.557500	0.040300	0.609700
O2271	O227	0.595800	0.844200	0.506300
O2281	O228	0.620400	0.054300	0.433800
O2291	O229	0.595000	0.891100	0.292400
O2301	O230	0.482800	0.875200	0.695800
O2311	O231	0.497400	0.748600	0.521500
O2321	O232	0.557200	0.804300	0.618500
O2331	O233	0.340600	0.893000	0.675800
O2341	O234	0.463100	0.866500	0.482600
O2351	O235	0.625100	0.212100	0.585000
O2361	O236	0.591900	0.951900	0.702200
O2371	O237	0.564700	0.009700	0.334800
O2381	O238	0.764300	0.083700	0.445100
O2391	O239	0.606800	0.826100	0.731900
O2401	O240	0.670200	0.043500	0.761700
