data_VUVZAP_clean_PM
_symmetry_space_group_name_H-M	'P1'
_cell_length_a	10.273000
_cell_length_b	11.318000
_cell_length_c	16.461000
_cell_angle_alpha	90.000000
_cell_angle_beta	100.064000
_cell_angle_gamma	90.000000
_symmetry_Int_Tables_number 1

loop_
_symmetry_equiv_pos_as_xyz
'x,y,z'

loop_
_atom_site_label
_atom_site_type_symbol
_atom_site_fract_x
_atom_site_fract_y
_atom_site_fract_z
In11	In1	0.737970	0.197240	0.076690
Br11	Br1	0.711710	0.367180	0.968340
O11	O1	0.105600	0.799800	0.339100
O21	O2	0.572200	0.662200	0.458000
O31	O3	0.766700	0.055200	0.167100
O41	O4	0.043100	0.673800	0.425500
O51	O5	0.419800	0.752100	0.364700
C11	C1	0.680000	0.979000	0.175500
O61	O6	0.574800	0.960300	0.127500
C21	C2	0.612000	0.850200	0.286400
H11	H1	0.524100	0.868500	0.266100
C31	C3	0.843600	0.871700	0.281000
H21	H2	0.911100	0.908700	0.259600
O71	O7	0.671500	0.074100	0.986000
C41	C4	0.015000	0.752200	0.370100
C51	C5	0.537800	0.724300	0.395000
C61	C6	0.712700	0.899500	0.250300
C71	C7	0.644000	0.773700	0.352600
C81	C8	0.775600	0.739700	0.379200
H31	H3	0.796500	0.684000	0.421000
C91	C9	0.873900	0.789300	0.343200
In21	In2	0.262030	0.697240	0.423310
Br21	Br2	0.288290	0.867180	0.531660
O81	O8	0.894400	0.299800	0.160900
O91	O9	0.427800	0.162200	0.042000
O101	O10	0.233300	0.555200	0.332900
O111	O11	0.956900	0.173800	0.074500
O121	O12	0.580200	0.252100	0.135300
C101	C10	0.320000	0.479000	0.324500
O131	O13	0.425200	0.460300	0.372500
C111	C11	0.388000	0.350200	0.213600
H41	H4	0.475900	0.368500	0.233900
C121	C12	0.156400	0.371700	0.219000
H51	H5	0.088900	0.408700	0.240400
O141	O14	0.328500	0.574100	0.514000
C131	C13	0.985000	0.252200	0.129900
C141	C14	0.462200	0.224300	0.105000
C151	C15	0.287300	0.399500	0.249700
C161	C16	0.356000	0.273700	0.147400
C171	C17	0.224400	0.239700	0.120800
H61	H6	0.203500	0.184000	0.079000
C181	C18	0.126100	0.289300	0.156800
In31	In3	0.262030	0.802760	0.923310
Br31	Br3	0.288290	0.632820	0.031660
O151	O15	0.894400	0.200200	0.660900
O161	O16	0.427800	0.337800	0.542000
O171	O17	0.233300	0.944800	0.832900
O181	O18	0.956900	0.326200	0.574500
O191	O19	0.580200	0.247900	0.635300
C191	C19	0.320000	0.021000	0.824500
O201	O20	0.425200	0.039700	0.872500
C201	C20	0.388000	0.149800	0.713600
H71	H7	0.475900	0.131500	0.733900
C211	C21	0.156400	0.128300	0.719000
H81	H8	0.088900	0.091300	0.740400
O211	O21	0.328500	0.925900	0.014000
C221	C22	0.985000	0.247800	0.629900
C231	C23	0.462200	0.275700	0.605000
C241	C24	0.287300	0.100500	0.749700
C251	C25	0.356000	0.226300	0.647400
C261	C26	0.224400	0.260300	0.620800
H91	H9	0.203500	0.316000	0.579000
C271	C27	0.126100	0.210700	0.656800
In41	In4	0.737970	0.302760	0.576690
Br41	Br4	0.711710	0.132820	0.468340
O221	O22	0.105600	0.700200	0.839100
O231	O23	0.572200	0.837800	0.958000
O241	O24	0.766700	0.444800	0.667100
O251	O25	0.043100	0.826200	0.925500
O261	O26	0.419800	0.747900	0.864700
C281	C28	0.680000	0.521000	0.675500
O271	O27	0.574800	0.539700	0.627500
C291	C29	0.612000	0.649800	0.786400
H101	H10	0.524100	0.631500	0.766100
C301	C30	0.843600	0.628300	0.781000
H111	H11	0.911100	0.591300	0.759600
O281	O28	0.671500	0.425900	0.486000
C311	C31	0.015000	0.747800	0.870100
C321	C32	0.537800	0.775700	0.895000
C331	C33	0.712700	0.600500	0.750300
C341	C34	0.644000	0.726300	0.852600
C351	C35	0.775600	0.760300	0.879200
H121	H12	0.796500	0.816000	0.921000
C361	C36	0.873900	0.710700	0.843200
Co11	Co1	0.500000	0.000000	0.000000
Co21	Co2	0.500000	0.500000	0.500000
