data_VUWRUC_clean_PM
_symmetry_space_group_name_H-M	'P1'
_cell_length_a	18.857500
_cell_length_b	21.814700
_cell_length_c	12.883700
_cell_angle_alpha	90.000000
_cell_angle_beta	90.000000
_cell_angle_gamma	90.000000
_symmetry_Int_Tables_number 1

loop_
_symmetry_equiv_pos_as_xyz
'x,y,z'

loop_
_atom_site_label
_atom_site_type_symbol
_atom_site_fract_x
_atom_site_fract_y
_atom_site_fract_z
O11	O1	0.412580	0.665820	0.739600
O21	O2	0.306510	0.677360	0.667300
O31	O3	0.430800	0.316850	0.356100
O41	O4	0.320300	0.317980	0.291600
O51	O5	0.062600	0.684800	0.641500
O61	O6	0.158900	0.672330	0.547500
C11	C1	0.370600	0.586300	0.631100
C21	C2	0.433400	0.553000	0.646100
H11	H1	0.469600	0.569400	0.689100
C31	C3	0.442900	0.498100	0.600500
H21	H2	0.484700	0.475300	0.615300
C41	C4	0.392400	0.473800	0.531500
C51	C5	0.403100	0.418200	0.477000
H31	H3	0.445100	0.395200	0.489200
C61	C6	0.354400	0.396700	0.407300
C71	C7	0.291200	0.430000	0.389900
H41	H4	0.256900	0.414600	0.342600
C81	C8	0.279000	0.484100	0.440400
H51	H5	0.236300	0.506000	0.427300
C91	C9	0.329300	0.508300	0.512400
C101	C10	0.319400	0.564200	0.565100
H61	H6	0.276900	0.586900	0.554900
C111	C11	0.362700	0.648100	0.683600
C121	C12	0.370000	0.338800	0.346100
C131	C13	0.069500	0.596900	0.534500
C141	C14	0.009600	0.571700	0.577600
H71	H7	0.986100	0.592600	0.632300
C151	C15	0.982600	0.515100	0.542000
C161	C16	0.078400	0.512800	0.414200
H81	H8	0.102000	0.493300	0.357900
C171	C17	0.103900	0.567100	0.451400
H91	H9	0.145000	0.584900	0.421200
C181	C18	0.098300	0.655500	0.577200
O71	O7	0.087420	0.334180	0.239600
O81	O8	0.193490	0.322640	0.167300
O91	O9	0.069200	0.683150	0.856100
O101	O10	0.179700	0.682020	0.791600
O111	O11	0.437400	0.315200	0.141500
O121	O12	0.341100	0.327670	0.047500
C191	C19	0.129400	0.413700	0.131100
C201	C20	0.066600	0.447000	0.146100
H101	H10	0.030400	0.430600	0.189100
C211	C21	0.057100	0.501900	0.100500
H111	H11	0.015300	0.524700	0.115300
C221	C22	0.107600	0.526200	0.031500
C231	C23	0.096900	0.581800	0.977000
H121	H12	0.054900	0.604800	0.989200
C241	C24	0.145600	0.603300	0.907300
C251	C25	0.208800	0.570000	0.889900
H131	H13	0.243100	0.585400	0.842600
C261	C26	0.221000	0.515900	0.940400
H141	H14	0.263700	0.494000	0.927300
C271	C27	0.170700	0.491700	0.012400
C281	C28	0.180600	0.435800	0.065100
H151	H15	0.223100	0.413100	0.054900
C291	C29	0.137300	0.351900	0.183600
C301	C30	0.130000	0.661200	0.846100
C311	C31	0.430500	0.403100	0.034500
C321	C32	0.490400	0.428300	0.077600
H161	H16	0.513900	0.407400	0.132300
C331	C33	0.517400	0.484900	0.042000
C341	C34	0.421600	0.487200	0.914200
H171	H17	0.398000	0.506700	0.857900
C351	C35	0.396100	0.432900	0.951400
H181	H18	0.355000	0.415100	0.921200
C361	C36	0.401700	0.344500	0.077200
O131	O13	0.587420	0.165820	0.260400
O141	O14	0.693490	0.177360	0.332700
O151	O15	0.569200	0.816850	0.643900
O161	O16	0.679700	0.817980	0.708400
O171	O17	0.937400	0.184800	0.358500
O181	O18	0.841100	0.172330	0.452500
C371	C37	0.629400	0.086300	0.368900
C381	C38	0.566600	0.053000	0.353900
H191	H19	0.530400	0.069400	0.310900
C391	C39	0.557100	0.998100	0.399500
H201	H20	0.515300	0.975300	0.384700
C401	C40	0.607600	0.973800	0.468500
C411	C41	0.596900	0.918200	0.523000
H211	H21	0.554900	0.895200	0.510800
C421	C42	0.645600	0.896700	0.592700
C431	C43	0.708800	0.930000	0.610100
H221	H22	0.743100	0.914600	0.657400
C441	C44	0.721000	0.984100	0.559600
H231	H23	0.763700	0.006000	0.572700
C451	C45	0.670700	0.008300	0.487600
C461	C46	0.680600	0.064200	0.434900
H241	H24	0.723100	0.086900	0.445100
C471	C47	0.637300	0.148100	0.316400
C481	C48	0.630000	0.838800	0.653900
C491	C49	0.930500	0.096900	0.465500
C501	C50	0.990400	0.071700	0.422400
H251	H25	0.013900	0.092600	0.367700
C511	C51	0.017400	0.015100	0.458000
C521	C52	0.921600	0.012800	0.585800
H261	H26	0.898000	0.993300	0.642100
C531	C53	0.896100	0.067100	0.548600
H271	H27	0.855000	0.084900	0.578800
C541	C54	0.901700	0.155500	0.422800
O191	O19	0.912580	0.834180	0.760400
O201	O20	0.806510	0.822640	0.832700
O211	O21	0.930800	0.183150	0.143900
O221	O22	0.820300	0.182020	0.208400
O231	O23	0.562600	0.815200	0.858500
O241	O24	0.658900	0.827670	0.952500
C551	C55	0.870600	0.913700	0.868900
C561	C56	0.933400	0.947000	0.853900
H281	H28	0.969600	0.930600	0.810900
C571	C57	0.942900	0.001900	0.899500
H291	H29	0.984700	0.024700	0.884700
C581	C58	0.892400	0.026200	0.968500
C591	C59	0.903100	0.081800	0.023000
H301	H30	0.945100	0.104800	0.010800
C601	C60	0.854400	0.103300	0.092700
C611	C61	0.791200	0.070000	0.110100
H311	H31	0.756900	0.085400	0.157400
C621	C62	0.779000	0.015900	0.059600
H321	H32	0.736300	0.994000	0.072700
C631	C63	0.829300	0.991700	0.987600
C641	C64	0.819400	0.935800	0.934900
H331	H33	0.776900	0.913100	0.945100
C651	C65	0.862700	0.851900	0.816400
C661	C66	0.870000	0.161200	0.153900
C671	C67	0.569500	0.903100	0.965500
C681	C68	0.509600	0.928300	0.922400
H341	H34	0.486100	0.907400	0.867700
C691	C69	0.482600	0.984900	0.958000
C701	C70	0.578400	0.987200	0.085800
H351	H35	0.602000	0.006700	0.142100
C711	C71	0.603900	0.932900	0.048600
H361	H36	0.645000	0.915100	0.078800
C721	C72	0.598300	0.844500	0.922800
O251	O25	0.587420	0.334180	0.260400
O261	O26	0.693490	0.322640	0.332700
O271	O27	0.569200	0.683150	0.643900
O281	O28	0.679700	0.682020	0.708400
O291	O29	0.937400	0.315200	0.358500
O301	O30	0.841100	0.327670	0.452500
C731	C73	0.629400	0.413700	0.368900
C741	C74	0.566600	0.447000	0.353900
H371	H37	0.530400	0.430600	0.310900
C751	C75	0.557100	0.501900	0.399500
H381	H38	0.515300	0.524700	0.384700
C761	C76	0.607600	0.526200	0.468500
C771	C77	0.596900	0.581800	0.523000
H391	H39	0.554900	0.604800	0.510800
C781	C78	0.645600	0.603300	0.592700
C791	C79	0.708800	0.570000	0.610100
H401	H40	0.743100	0.585400	0.657400
C801	C80	0.721000	0.515900	0.559600
H411	H41	0.763700	0.494000	0.572700
C811	C81	0.670700	0.491700	0.487600
C821	C82	0.680600	0.435800	0.434900
H421	H42	0.723100	0.413100	0.445100
C831	C83	0.637300	0.351900	0.316400
C841	C84	0.630000	0.661200	0.653900
C851	C85	0.930500	0.403100	0.465500
C861	C86	0.990400	0.428300	0.422400
H431	H43	0.013900	0.407400	0.367700
C871	C87	0.017400	0.484900	0.458000
C881	C88	0.921600	0.487200	0.585800
H441	H44	0.898000	0.506700	0.642100
C891	C89	0.896100	0.432900	0.548600
H451	H45	0.855000	0.415100	0.578800
C901	C90	0.901700	0.344500	0.422800
O311	O31	0.912580	0.665820	0.760400
O321	O32	0.806510	0.677360	0.832700
O331	O33	0.930800	0.316850	0.143900
O341	O34	0.820300	0.317980	0.208400
O351	O35	0.562600	0.684800	0.858500
O361	O36	0.658900	0.672330	0.952500
C911	C91	0.870600	0.586300	0.868900
C921	C92	0.933400	0.553000	0.853900
H461	H46	0.969600	0.569400	0.810900
C931	C93	0.942900	0.498100	0.899500
H471	H47	0.984700	0.475300	0.884700
C941	C94	0.892400	0.473800	0.968500
C951	C95	0.903100	0.418200	0.023000
H481	H48	0.945100	0.395200	0.010800
C961	C96	0.854400	0.396700	0.092700
C971	C97	0.791200	0.430000	0.110100
H491	H49	0.756900	0.414600	0.157400
C981	C98	0.779000	0.484100	0.059600
H501	H50	0.736300	0.506000	0.072700
C991	C99	0.829300	0.508300	0.987600
C1001	C100	0.819400	0.564200	0.934900
H511	H51	0.776900	0.586900	0.945100
C1011	C101	0.862700	0.648100	0.816400
C1021	C102	0.870000	0.338800	0.153900
C1031	C103	0.569500	0.596900	0.965500
C1041	C104	0.509600	0.571700	0.922400
H521	H52	0.486100	0.592600	0.867700
C1051	C105	0.482600	0.515100	0.958000
C1061	C106	0.578400	0.512800	0.085800
H531	H53	0.602000	0.493300	0.142100
C1071	C107	0.603900	0.567100	0.048600
H541	H54	0.645000	0.584900	0.078800
C1081	C108	0.598300	0.655500	0.922800
O371	O37	0.412580	0.834180	0.739600
O381	O38	0.306510	0.822640	0.667300
O391	O39	0.430800	0.183150	0.356100
O401	O40	0.320300	0.182020	0.291600
O411	O41	0.062600	0.815200	0.641500
O421	O42	0.158900	0.827670	0.547500
C1091	C109	0.370600	0.913700	0.631100
C1101	C110	0.433400	0.947000	0.646100
H551	H55	0.469600	0.930600	0.689100
C1111	C111	0.442900	0.001900	0.600500
H561	H56	0.484700	0.024700	0.615300
C1121	C112	0.392400	0.026200	0.531500
C1131	C113	0.403100	0.081800	0.477000
H571	H57	0.445100	0.104800	0.489200
C1141	C114	0.354400	0.103300	0.407300
C1151	C115	0.291200	0.070000	0.389900
H581	H58	0.256900	0.085400	0.342600
C1161	C116	0.279000	0.015900	0.440400
H591	H59	0.236300	0.994000	0.427300
C1171	C117	0.329300	0.991700	0.512400
C1181	C118	0.319400	0.935800	0.565100
H601	H60	0.276900	0.913100	0.554900
C1191	C119	0.362700	0.851900	0.683600
C1201	C120	0.370000	0.161200	0.346100
C1211	C121	0.069500	0.903100	0.534500
C1221	C122	0.009600	0.928300	0.577600
H611	H61	0.986100	0.907400	0.632300
C1231	C123	0.982600	0.984900	0.542000
C1241	C124	0.078400	0.987200	0.414200
H621	H62	0.102000	0.006700	0.357900
C1251	C125	0.103900	0.932900	0.451400
H631	H63	0.145000	0.915100	0.421200
C1261	C126	0.098300	0.844500	0.577200
O431	O43	0.087420	0.165820	0.239600
O441	O44	0.193490	0.177360	0.167300
O451	O45	0.069200	0.816850	0.856100
O461	O46	0.179700	0.817980	0.791600
O471	O47	0.437400	0.184800	0.141500
O481	O48	0.341100	0.172330	0.047500
C1271	C127	0.129400	0.086300	0.131100
C1281	C128	0.066600	0.053000	0.146100
H641	H64	0.030400	0.069400	0.189100
C1291	C129	0.057100	0.998100	0.100500
H651	H65	0.015300	0.975300	0.115300
C1301	C130	0.107600	0.973800	0.031500
C1311	C131	0.096900	0.918200	0.977000
H661	H66	0.054900	0.895200	0.989200
C1321	C132	0.145600	0.896700	0.907300
C1331	C133	0.208800	0.930000	0.889900
H671	H67	0.243100	0.914600	0.842600
C1341	C134	0.221000	0.984100	0.940400
H681	H68	0.263700	0.006000	0.927300
C1351	C135	0.170700	0.008300	0.012400
C1361	C136	0.180600	0.064200	0.065100
H691	H69	0.223100	0.086900	0.054900
C1371	C137	0.137300	0.148100	0.183600
C1381	C138	0.130000	0.838800	0.846100
C1391	C139	0.430500	0.096900	0.034500
C1401	C140	0.490400	0.071700	0.077600
H701	H70	0.513900	0.092600	0.132300
C1411	C141	0.517400	0.015100	0.042000
C1421	C142	0.421600	0.012800	0.914200
H711	H71	0.398000	0.993300	0.857900
C1431	C143	0.396100	0.067100	0.951400
H721	H72	0.355000	0.084900	0.921200
C1441	C144	0.401700	0.155500	0.077200
Nd11	Nd1	0.494670	0.750000	0.747180
Nd21	Nd2	0.214650	0.750000	0.655270
Nd31	Nd3	0.005330	0.250000	0.247180
Nd41	Nd4	0.285350	0.250000	0.155270
Nd51	Nd5	0.505330	0.250000	0.252820
Nd61	Nd6	0.785350	0.250000	0.344730
Nd71	Nd7	0.994670	0.750000	0.752820
Nd81	Nd8	0.714650	0.750000	0.844730
