data_VUWSAJ_clean_PM
_symmetry_space_group_name_H-M	'P1'
_cell_length_a	9.832000
_cell_length_b	21.321800
_cell_length_c	13.794900
_cell_angle_alpha	90.000000
_cell_angle_beta	105.602000
_cell_angle_gamma	90.000000
_symmetry_Int_Tables_number 1

loop_
_symmetry_equiv_pos_as_xyz
'x,y,z'

loop_
_atom_site_label
_atom_site_type_symbol
_atom_site_fract_x
_atom_site_fract_y
_atom_site_fract_z
Nd11	Nd1	0.261240	0.015610	0.514860
O11	O1	0.123600	0.102500	0.545200
O21	O2	0.901800	0.069960	0.514700
O31	O3	0.851500	0.394970	0.939100
O41	O4	0.060700	0.438000	0.948100
O51	O5	0.089000	0.029200	0.341500
O61	O6	0.287200	0.980200	0.346500
C11	C1	0.972900	0.157600	0.622600
C21	C2	0.841000	0.161300	0.645500
H11	H1	0.767400	0.132900	0.615200
C31	C3	0.820400	0.204900	0.710100
H21	H2	0.732900	0.205400	0.727000
C41	C4	0.923200	0.249800	0.753900
C51	C5	0.900900	0.298600	0.818500
H31	H3	0.813100	0.300500	0.834900
C61	C6	0.000600	0.342200	0.857400
C71	C7	0.130900	0.339500	0.833600
H41	H4	0.201600	0.369900	0.860400
C81	C8	0.156200	0.293100	0.772000
H51	H5	0.244900	0.291800	0.756900
C91	C9	0.053900	0.247100	0.730500
C101	C10	0.075100	0.199400	0.665600
H61	H6	0.164200	0.196400	0.651400
C111	C11	0.001600	0.106000	0.555900
C121	C12	0.969000	0.395800	0.919900
C131	C13	0.171900	0.956800	0.033400
H71	H7	0.230500	0.934200	0.001000
C141	C14	0.211600	0.963000	0.135000
H81	H8	0.298200	0.945300	0.173000
C151	C15	0.124600	0.995600	0.184500
C161	C16	0.001500	0.021000	0.131500
H91	H9	0.944200	0.042600	0.166100
C171	C17	0.956100	0.016200	0.025200
C181	C18	0.169100	0.002000	0.297000
Nd21	Nd2	0.238760	0.515610	0.985140
O71	O7	0.376400	0.602500	0.954800
O81	O8	0.598200	0.569960	0.985300
O91	O9	0.648500	0.894970	0.560900
O101	O10	0.439300	0.938000	0.551900
O111	O11	0.411000	0.529200	0.158500
O121	O12	0.212800	0.480200	0.153500
C191	C19	0.527100	0.657600	0.877400
C201	C20	0.659000	0.661300	0.854500
H101	H10	0.732600	0.632900	0.884800
C211	C21	0.679600	0.704900	0.789900
H111	H11	0.767100	0.705400	0.773000
C221	C22	0.576800	0.749800	0.746100
C231	C23	0.599100	0.798600	0.681500
H121	H12	0.686900	0.800500	0.665100
C241	C24	0.499400	0.842200	0.642600
C251	C25	0.369100	0.839500	0.666400
H131	H13	0.298400	0.869900	0.639600
C261	C26	0.343800	0.793100	0.728000
H141	H14	0.255100	0.791800	0.743100
C271	C27	0.446100	0.747100	0.769500
C281	C28	0.424900	0.699400	0.834400
H151	H15	0.335800	0.696400	0.848600
C291	C29	0.498400	0.606000	0.944100
C301	C30	0.531000	0.895800	0.580100
C311	C31	0.328100	0.456800	0.466600
H161	H16	0.269500	0.434200	0.499000
C321	C32	0.288400	0.463000	0.365000
H171	H17	0.201800	0.445300	0.327000
C331	C33	0.375400	0.495600	0.315500
C341	C34	0.498500	0.521000	0.368500
H181	H18	0.555800	0.542600	0.333900
C351	C35	0.543900	0.516200	0.474800
C361	C36	0.330900	0.502000	0.203000
Nd31	Nd3	0.738760	0.984380	0.485140
O131	O13	0.876400	0.897500	0.454800
O141	O14	0.098200	0.930040	0.485300
O151	O15	0.148500	0.605030	0.060900
O161	O16	0.939300	0.562000	0.051900
O171	O17	0.911000	0.970800	0.658500
O181	O18	0.712800	0.019800	0.653500
C371	C37	0.027100	0.842400	0.377400
C381	C38	0.159000	0.838700	0.354500
H191	H19	0.232600	0.867100	0.384800
C391	C39	0.179600	0.795100	0.289900
H201	H20	0.267100	0.794600	0.273000
C401	C40	0.076800	0.750200	0.246100
C411	C41	0.099100	0.701400	0.181500
H211	H21	0.186900	0.699500	0.165100
C421	C42	0.999400	0.657800	0.142600
C431	C43	0.869100	0.660500	0.166400
H221	H22	0.798400	0.630100	0.139600
C441	C44	0.843800	0.706900	0.228000
H231	H23	0.755100	0.708200	0.243100
C451	C45	0.946100	0.752900	0.269500
C461	C46	0.924900	0.800600	0.334400
H241	H24	0.835800	0.803600	0.348600
C471	C47	0.998400	0.894000	0.444100
C481	C48	0.031000	0.604200	0.080100
C491	C49	0.828100	0.043200	0.966600
H251	H25	0.769500	0.065800	0.999000
C501	C50	0.788400	0.037000	0.865000
H261	H26	0.701800	0.054700	0.827000
C511	C51	0.875400	0.004400	0.815500
C521	C52	0.998500	0.979000	0.868500
H271	H27	0.055800	0.957400	0.833900
C531	C53	0.043900	0.983800	0.974800
C541	C54	0.830900	0.998000	0.703000
Nd41	Nd4	0.761240	0.484380	0.014860
O191	O19	0.623600	0.397500	0.045200
O201	O20	0.401800	0.430040	0.014700
O211	O21	0.351500	0.105030	0.439100
O221	O22	0.560700	0.062000	0.448100
O231	O23	0.589000	0.470800	0.841500
O241	O24	0.787200	0.519800	0.846500
C551	C55	0.472900	0.342400	0.122600
C561	C56	0.341000	0.338700	0.145500
H281	H28	0.267400	0.367100	0.115200
C571	C57	0.320400	0.295100	0.210100
H291	H29	0.232900	0.294600	0.227000
C581	C58	0.423200	0.250200	0.253900
C591	C59	0.400900	0.201400	0.318500
H301	H30	0.313100	0.199500	0.334900
C601	C60	0.500600	0.157800	0.357400
C611	C61	0.630900	0.160500	0.333600
H311	H31	0.701600	0.130100	0.360400
C621	C62	0.656200	0.206900	0.272000
H321	H32	0.744900	0.208200	0.256900
C631	C63	0.553900	0.252900	0.230500
C641	C64	0.575100	0.300600	0.165600
H331	H33	0.664200	0.303600	0.151400
C651	C65	0.501600	0.394000	0.055900
C661	C66	0.469000	0.104200	0.419900
C671	C67	0.671900	0.543200	0.533400
H341	H34	0.730500	0.565800	0.501000
C681	C68	0.711600	0.537000	0.635000
H351	H35	0.798200	0.554700	0.673000
C691	C69	0.624600	0.504400	0.684500
C701	C70	0.501500	0.479000	0.631500
H361	H36	0.444200	0.457400	0.666100
C711	C71	0.456100	0.483800	0.525200
C721	C72	0.669100	0.498000	0.797000
