data_VUZNOV_clean_PM
_symmetry_space_group_name_H-M	'P1'
_cell_length_a	13.851000
_cell_length_b	13.851000
_cell_length_c	58.358000
_cell_angle_alpha	90.000000
_cell_angle_beta	90.000000
_cell_angle_gamma	120.000000
_symmetry_Int_Tables_number 1

loop_
_symmetry_equiv_pos_as_xyz
'x,y,z'

loop_
_atom_site_label
_atom_site_type_symbol
_atom_site_fract_x
_atom_site_fract_y
_atom_site_fract_z
C11	C1	0.246600	0.159800	0.017750
H11	H1	0.260000	0.211600	0.006300
C21	C2	0.323600	0.168400	0.033120
H21	H2	0.397800	0.224500	0.034100
C31	C3	0.163700	0.017200	0.038980
H31	H3	0.109500	0.950000	0.045300
C41	C4	0.314300	0.048700	0.065860
C51	C5	0.417400	0.120000	0.074420
H41	H4	0.461500	0.190700	0.068200
N11	N1	0.147300	0.065500	0.021250
N21	N2	0.269000	0.076800	0.046980
N31	N3	0.249300	0.950600	0.073990
C61	C6	0.913270	0.493130	0.351080
H51	H5	0.926670	0.544930	0.339630
C71	C7	0.990270	0.501730	0.366450
H61	H6	0.064470	0.557830	0.367430
C81	C8	0.830370	0.350530	0.372310
H71	H7	0.776170	0.283330	0.378630
C91	C9	0.980970	0.382030	0.399190
C101	C10	0.084070	0.453330	0.407750
H81	H8	0.128170	0.524030	0.401530
N41	N4	0.813970	0.398830	0.354580
N51	N5	0.935670	0.410130	0.380310
N61	N6	0.915970	0.283930	0.407320
C111	C11	0.579930	0.826470	0.684420
H91	H9	0.593330	0.878270	0.672970
C121	C12	0.656930	0.835070	0.699790
H101	H10	0.731130	0.891170	0.700770
C131	C13	0.497030	0.683870	0.705650
H111	H11	0.442830	0.616670	0.711970
C141	C14	0.647630	0.715370	0.732530
C151	C15	0.750730	0.786670	0.741090
H121	H12	0.794830	0.857370	0.734870
N71	N7	0.480630	0.732170	0.687920
N81	N8	0.602330	0.743470	0.713650
N91	N9	0.582630	0.617270	0.740660
C161	C16	0.840200	0.086800	0.017750
H131	H13	0.788400	0.048400	0.006300
C171	C17	0.831600	0.155200	0.033120
H141	H14	0.775500	0.173300	0.034100
C181	C18	0.982800	0.146500	0.038980
H151	H15	0.050000	0.159500	0.045300
C191	C19	0.951300	0.265600	0.065860
C201	C20	0.880000	0.297400	0.074420
H161	H16	0.809300	0.270800	0.068200
N101	N10	0.934500	0.081800	0.021250
N111	N11	0.923200	0.192200	0.046980
N121	N12	0.049400	0.298700	0.073990
C211	C21	0.506870	0.420130	0.351080
H171	H17	0.455070	0.381730	0.339630
C221	C22	0.498270	0.488530	0.366450
H181	H18	0.442170	0.506630	0.367430
C231	C23	0.649470	0.479830	0.372310
H191	H19	0.716670	0.492830	0.378630
C241	C24	0.617970	0.598930	0.399190
C251	C25	0.546670	0.630730	0.407750
H201	H20	0.475970	0.604130	0.401530
N131	N13	0.601170	0.415130	0.354580
N141	N14	0.589870	0.525530	0.380310
N151	N15	0.716070	0.632030	0.407320
C261	C26	0.173530	0.753470	0.684420
H211	H21	0.121730	0.715070	0.672970
C271	C27	0.164930	0.821870	0.699790
H221	H22	0.108830	0.839970	0.700770
C281	C28	0.316130	0.813170	0.705650
H231	H23	0.383330	0.826170	0.711970
C291	C29	0.284630	0.932270	0.732530
C301	C30	0.213330	0.964070	0.741090
H241	H24	0.142630	0.937470	0.734870
N161	N16	0.267830	0.748470	0.687920
N171	N17	0.256530	0.858870	0.713650
N181	N18	0.382730	0.965370	0.740660
C311	C31	0.913200	0.753400	0.017750
H251	H25	0.951600	0.740000	0.006300
C321	C32	0.844800	0.676400	0.033120
H261	H26	0.826700	0.602200	0.034100
C331	C33	0.853500	0.836300	0.038980
H271	H27	0.840500	0.890500	0.045300
C341	C34	0.734400	0.685700	0.065860
C351	C35	0.702600	0.582600	0.074420
H281	H28	0.729200	0.538500	0.068200
N191	N19	0.918200	0.852700	0.021250
N201	N20	0.807800	0.731000	0.046980
N211	N21	0.701300	0.750700	0.073990
C361	C36	0.579870	0.086730	0.351080
H291	H29	0.618270	0.073330	0.339630
C371	C37	0.511470	0.009730	0.366450
H301	H30	0.493370	0.935530	0.367430
C381	C38	0.520170	0.169630	0.372310
H311	H31	0.507170	0.223830	0.378630
C391	C39	0.401070	0.019030	0.399190
C401	C40	0.369270	0.915930	0.407750
H321	H32	0.395870	0.871830	0.401530
N221	N22	0.584870	0.186030	0.354580
N231	N23	0.474470	0.064330	0.380310
N241	N24	0.367970	0.084030	0.407320
C411	C41	0.246530	0.420070	0.684420
H331	H33	0.284930	0.406670	0.672970
C421	C42	0.178130	0.343070	0.699790
H341	H34	0.160030	0.268870	0.700770
C431	C43	0.186830	0.502970	0.705650
H351	H35	0.173830	0.557170	0.711970
C441	C44	0.067730	0.352370	0.732530
C451	C45	0.035930	0.249270	0.741090
H361	H36	0.062530	0.205170	0.734870
N251	N25	0.251530	0.519370	0.687920
N261	N26	0.141130	0.397670	0.713650
N271	N27	0.034630	0.417370	0.740660
C461	C46	0.159800	0.246600	0.482250
H371	H37	0.211600	0.260000	0.493700
C471	C47	0.168400	0.323600	0.466880
H381	H38	0.224500	0.397800	0.465900
C481	C48	0.017200	0.163700	0.461020
H391	H39	0.950000	0.109500	0.454700
C491	C49	0.048700	0.314300	0.434140
C501	C50	0.120000	0.417400	0.425580
H401	H40	0.190700	0.461500	0.431800
N281	N28	0.065500	0.147300	0.478750
N291	N29	0.076800	0.269000	0.453020
N301	N30	0.950600	0.249300	0.426010
C511	C51	0.826470	0.579930	0.815580
H411	H41	0.878270	0.593330	0.827030
C521	C52	0.835070	0.656930	0.800210
H421	H42	0.891170	0.731130	0.799230
C531	C53	0.683870	0.497030	0.794350
H431	H43	0.616670	0.442830	0.788030
C541	C54	0.715370	0.647630	0.767470
C551	C55	0.786670	0.750730	0.758910
H441	H44	0.857370	0.794830	0.765130
N311	N31	0.732170	0.480630	0.812080
N321	N32	0.743470	0.602330	0.786350
N331	N33	0.617270	0.582630	0.759340
C561	C56	0.493130	0.913270	0.148920
H451	H45	0.544930	0.926670	0.160370
C571	C57	0.501730	0.990270	0.133550
H461	H46	0.557830	0.064470	0.132570
C581	C58	0.350530	0.830370	0.127690
H471	H47	0.283330	0.776170	0.121370
C591	C59	0.382030	0.980970	0.100810
C601	C60	0.453330	0.084070	0.092250
H481	H48	0.524030	0.128170	0.098470
N341	N34	0.398830	0.813970	0.145420
N351	N35	0.410130	0.935670	0.119690
N361	N36	0.283930	0.915970	0.092680
C611	C61	0.086800	0.840200	0.482250
H491	H49	0.048400	0.788400	0.493700
C621	C62	0.155200	0.831600	0.466880
H501	H50	0.173300	0.775500	0.465900
C631	C63	0.146500	0.982800	0.461020
H511	H51	0.159500	0.050000	0.454700
C641	C64	0.265600	0.951300	0.434140
C651	C65	0.297400	0.880000	0.425580
H521	H52	0.270800	0.809300	0.431800
N371	N37	0.081800	0.934500	0.478750
N381	N38	0.192200	0.923200	0.453020
N391	N39	0.298700	0.049400	0.426010
C661	C66	0.753470	0.173530	0.815580
H531	H53	0.715070	0.121730	0.827030
C671	C67	0.821870	0.164930	0.800210
H541	H54	0.839970	0.108830	0.799230
C681	C68	0.813170	0.316130	0.794350
H551	H55	0.826170	0.383330	0.788030
C691	C69	0.932270	0.284630	0.767470
C701	C70	0.964070	0.213330	0.758910
H561	H56	0.937470	0.142630	0.765130
N401	N40	0.748470	0.267830	0.812080
N411	N41	0.858870	0.256530	0.786350
N421	N42	0.965370	0.382730	0.759340
C711	C71	0.420130	0.506870	0.148920
H571	H57	0.381730	0.455070	0.160370
C721	C72	0.488530	0.498270	0.133550
H581	H58	0.506630	0.442170	0.132570
C731	C73	0.479830	0.649470	0.127690
H591	H59	0.492830	0.716670	0.121370
C741	C74	0.598930	0.617970	0.100810
C751	C75	0.630730	0.546670	0.092250
H601	H60	0.604130	0.475970	0.098470
N431	N43	0.415130	0.601170	0.145420
N441	N44	0.525530	0.589870	0.119690
N451	N45	0.632030	0.716070	0.092680
C761	C76	0.753400	0.913200	0.482250
H611	H61	0.740000	0.951600	0.493700
C771	C77	0.676400	0.844800	0.466880
H621	H62	0.602200	0.826700	0.465900
C781	C78	0.836300	0.853500	0.461020
H631	H63	0.890500	0.840500	0.454700
C791	C79	0.685700	0.734400	0.434140
C801	C80	0.582600	0.702600	0.425580
H641	H64	0.538500	0.729200	0.431800
N461	N46	0.852700	0.918200	0.478750
N471	N47	0.731000	0.807800	0.453020
N481	N48	0.750700	0.701300	0.426010
C811	C81	0.420070	0.246530	0.815580
H651	H65	0.406670	0.284930	0.827030
C821	C82	0.343070	0.178130	0.800210
H661	H66	0.268870	0.160030	0.799230
C831	C83	0.502970	0.186830	0.794350
H671	H67	0.557170	0.173830	0.788030
C841	C84	0.352370	0.067730	0.767470
C851	C85	0.249270	0.035930	0.758910
H681	H68	0.205170	0.062530	0.765130
N491	N49	0.519370	0.251530	0.812080
N501	N50	0.397670	0.141130	0.786350
N511	N51	0.417370	0.034630	0.759340
C861	C86	0.086730	0.579870	0.148920
H691	H69	0.073330	0.618270	0.160370
C871	C87	0.009730	0.511470	0.133550
H701	H70	0.935530	0.493370	0.132570
C881	C88	0.169630	0.520170	0.127690
H711	H71	0.223830	0.507170	0.121370
C891	C89	0.019030	0.401070	0.100810
C901	C90	0.915930	0.369270	0.092250
H721	H72	0.871830	0.395870	0.098470
N521	N52	0.186030	0.584870	0.145420
N531	N53	0.064330	0.474470	0.119690
N541	N54	0.084030	0.367970	0.092680
C911	C91	0.753400	0.840200	0.982250
H731	H73	0.740000	0.788400	0.993700
C921	C92	0.676400	0.831600	0.966880
H741	H74	0.602200	0.775500	0.965900
C931	C93	0.836300	0.982800	0.961020
H751	H75	0.890500	0.050000	0.954700
C941	C94	0.685700	0.951300	0.934140
C951	C95	0.582600	0.880000	0.925580
H761	H76	0.538500	0.809300	0.931800
N551	N55	0.852700	0.934500	0.978750
N561	N56	0.731000	0.923200	0.953020
N571	N57	0.750700	0.049400	0.926010
C961	C96	0.420070	0.173530	0.315580
H771	H77	0.406670	0.121730	0.327030
C971	C97	0.343070	0.164930	0.300210
H781	H78	0.268870	0.108830	0.299230
C981	C98	0.502970	0.316130	0.294350
H791	H79	0.557170	0.383330	0.288030
C991	C99	0.352370	0.284630	0.267470
C1001	C100	0.249270	0.213330	0.258910
H801	H80	0.205170	0.142630	0.265130
N581	N58	0.519370	0.267830	0.312080
N591	N59	0.397670	0.256530	0.286350
N601	N60	0.417370	0.382730	0.259340
C1011	C101	0.086730	0.506870	0.648920
H811	H81	0.073330	0.455070	0.660370
C1021	C102	0.009730	0.498270	0.633550
H821	H82	0.935530	0.442170	0.632570
C1031	C103	0.169630	0.649470	0.627690
H831	H83	0.223830	0.716670	0.621370
C1041	C104	0.019030	0.617970	0.600810
C1051	C105	0.915930	0.546670	0.592250
H841	H84	0.871830	0.475970	0.598470
N611	N61	0.186030	0.601170	0.645420
N621	N62	0.064330	0.589870	0.619690
N631	N63	0.084030	0.716070	0.592680
C1061	C106	0.159800	0.913200	0.982250
H851	H85	0.211600	0.951600	0.993700
C1071	C107	0.168400	0.844800	0.966880
H861	H86	0.224500	0.826700	0.965900
C1081	C108	0.017200	0.853500	0.961020
H871	H87	0.950000	0.840500	0.954700
C1091	C109	0.048700	0.734400	0.934140
C1101	C110	0.120000	0.702600	0.925580
H881	H88	0.190700	0.729200	0.931800
N641	N64	0.065500	0.918200	0.978750
N651	N65	0.076800	0.807800	0.953020
N661	N66	0.950600	0.701300	0.926010
C1111	C111	0.826470	0.246530	0.315580
H891	H89	0.878270	0.284930	0.327030
C1121	C112	0.835070	0.178130	0.300210
H901	H90	0.891170	0.160030	0.299230
C1131	C113	0.683870	0.186830	0.294350
H911	H91	0.616670	0.173830	0.288030
C1141	C114	0.715370	0.067730	0.267470
C1151	C115	0.786670	0.035930	0.258910
H921	H92	0.857370	0.062530	0.265130
N671	N67	0.732170	0.251530	0.312080
N681	N68	0.743470	0.141130	0.286350
N691	N69	0.617270	0.034630	0.259340
C1161	C116	0.493130	0.579870	0.648920
H931	H93	0.544930	0.618270	0.660370
C1171	C117	0.501730	0.511470	0.633550
H941	H94	0.557830	0.493370	0.632570
C1181	C118	0.350530	0.520170	0.627690
H951	H95	0.283330	0.507170	0.621370
C1191	C119	0.382030	0.401070	0.600810
C1201	C120	0.453330	0.369270	0.592250
H961	H96	0.524030	0.395870	0.598470
N701	N70	0.398830	0.584870	0.645420
N711	N71	0.410130	0.474470	0.619690
N721	N72	0.283930	0.367970	0.592680
C1211	C121	0.086800	0.246600	0.982250
H971	H97	0.048400	0.260000	0.993700
C1221	C122	0.155200	0.323600	0.966880
H981	H98	0.173300	0.397800	0.965900
C1231	C123	0.146500	0.163700	0.961020
H991	H99	0.159500	0.109500	0.954700
C1241	C124	0.265600	0.314300	0.934140
C1251	C125	0.297400	0.417400	0.925580
H1001	H100	0.270800	0.461500	0.931800
N731	N73	0.081800	0.147300	0.978750
N741	N74	0.192200	0.269000	0.953020
N751	N75	0.298700	0.249300	0.926010
C1261	C126	0.753470	0.579930	0.315580
H1011	H101	0.715070	0.593330	0.327030
C1271	C127	0.821870	0.656930	0.300210
H1021	H102	0.839970	0.731130	0.299230
C1281	C128	0.813170	0.497030	0.294350
H1031	H103	0.826170	0.442830	0.288030
C1291	C129	0.932270	0.647630	0.267470
C1301	C130	0.964070	0.750730	0.258910
H1041	H104	0.937470	0.794830	0.265130
N761	N76	0.748470	0.480630	0.312080
N771	N77	0.858870	0.602330	0.286350
N781	N78	0.965370	0.582630	0.259340
C1311	C131	0.420130	0.913270	0.648920
H1051	H105	0.381730	0.926670	0.660370
C1321	C132	0.488530	0.990270	0.633550
H1061	H106	0.506630	0.064470	0.632570
C1331	C133	0.479830	0.830370	0.627690
H1071	H107	0.492830	0.776170	0.621370
C1341	C134	0.598930	0.980970	0.600810
C1351	C135	0.630730	0.084070	0.592250
H1081	H108	0.604130	0.128170	0.598470
N791	N79	0.415130	0.813970	0.645420
N801	N80	0.525530	0.935670	0.619690
N811	N81	0.632030	0.915970	0.592680
C1361	C136	0.840200	0.753400	0.517750
H1091	H109	0.788400	0.740000	0.506300
C1371	C137	0.831600	0.676400	0.533120
H1101	H110	0.775500	0.602200	0.534100
C1381	C138	0.982800	0.836300	0.538980
H1111	H111	0.050000	0.890500	0.545300
C1391	C139	0.951300	0.685700	0.565860
C1401	C140	0.880000	0.582600	0.574420
H1121	H112	0.809300	0.538500	0.568200
N821	N82	0.934500	0.852700	0.521250
N831	N83	0.923200	0.731000	0.546980
N841	N84	0.049400	0.750700	0.573990
C1411	C141	0.506870	0.086730	0.851080
H1131	H113	0.455070	0.073330	0.839630
C1421	C142	0.498270	0.009730	0.866450
H1141	H114	0.442170	0.935530	0.867430
C1431	C143	0.649470	0.169630	0.872310
H1151	H115	0.716670	0.223830	0.878630
C1441	C144	0.617970	0.019030	0.899190
C1451	C145	0.546670	0.915930	0.907750
H1161	H116	0.475970	0.871830	0.901530
N851	N85	0.601170	0.186030	0.854580
N861	N86	0.589870	0.064330	0.880310
N871	N87	0.716070	0.084030	0.907320
C1461	C146	0.173530	0.420070	0.184420
H1171	H117	0.121730	0.406670	0.172970
C1471	C147	0.164930	0.343070	0.199790
H1181	H118	0.108830	0.268870	0.200770
C1481	C148	0.316130	0.502970	0.205650
H1191	H119	0.383330	0.557170	0.211970
C1491	C149	0.284630	0.352370	0.232530
C1501	C150	0.213330	0.249270	0.241090
H1201	H120	0.142630	0.205170	0.234870
N881	N88	0.267830	0.519370	0.187920
N891	N89	0.256530	0.397670	0.213650
N901	N90	0.382730	0.417370	0.240660
C1511	C151	0.913200	0.159800	0.517750
H1211	H121	0.951600	0.211600	0.506300
C1521	C152	0.844800	0.168400	0.533120
H1221	H122	0.826700	0.224500	0.534100
C1531	C153	0.853500	0.017200	0.538980
H1231	H123	0.840500	0.950000	0.545300
C1541	C154	0.734400	0.048700	0.565860
C1551	C155	0.702600	0.120000	0.574420
H1241	H124	0.729200	0.190700	0.568200
N911	N91	0.918200	0.065500	0.521250
N921	N92	0.807800	0.076800	0.546980
N931	N93	0.701300	0.950600	0.573990
C1561	C156	0.579870	0.493130	0.851080
H1251	H125	0.618270	0.544930	0.839630
C1571	C157	0.511470	0.501730	0.866450
H1261	H126	0.493370	0.557830	0.867430
C1581	C158	0.520170	0.350530	0.872310
H1271	H127	0.507170	0.283330	0.878630
C1591	C159	0.401070	0.382030	0.899190
C1601	C160	0.369270	0.453330	0.907750
H1281	H128	0.395870	0.524030	0.901530
N941	N94	0.584870	0.398830	0.854580
N951	N95	0.474470	0.410130	0.880310
N961	N96	0.367970	0.283930	0.907320
C1611	C161	0.246530	0.826470	0.184420
H1291	H129	0.284930	0.878270	0.172970
C1621	C162	0.178130	0.835070	0.199790
H1301	H130	0.160030	0.891170	0.200770
C1631	C163	0.186830	0.683870	0.205650
H1311	H131	0.173830	0.616670	0.211970
C1641	C164	0.067730	0.715370	0.232530
C1651	C165	0.035930	0.786670	0.241090
H1321	H132	0.062530	0.857370	0.234870
N971	N97	0.251530	0.732170	0.187920
N981	N98	0.141130	0.743470	0.213650
N991	N99	0.034630	0.617270	0.240660
C1661	C166	0.246600	0.086800	0.517750
H1331	H133	0.260000	0.048400	0.506300
C1671	C167	0.323600	0.155200	0.533120
H1341	H134	0.397800	0.173300	0.534100
C1681	C168	0.163700	0.146500	0.538980
H1351	H135	0.109500	0.159500	0.545300
C1691	C169	0.314300	0.265600	0.565860
C1701	C170	0.417400	0.297400	0.574420
H1361	H136	0.461500	0.270800	0.568200
N1001	N100	0.147300	0.081800	0.521250
N1011	N101	0.269000	0.192200	0.546980
N1021	N102	0.249300	0.298700	0.573990
C1711	C171	0.913270	0.420130	0.851080
H1371	H137	0.926670	0.381730	0.839630
C1721	C172	0.990270	0.488530	0.866450
H1381	H138	0.064470	0.506630	0.867430
C1731	C173	0.830370	0.479830	0.872310
H1391	H139	0.776170	0.492830	0.878630
C1741	C174	0.980970	0.598930	0.899190
C1751	C175	0.084070	0.630730	0.907750
H1401	H140	0.128170	0.604130	0.901530
N1031	N103	0.813970	0.415130	0.854580
N1041	N104	0.935670	0.525530	0.880310
N1051	N105	0.915970	0.632030	0.907320
C1761	C176	0.579930	0.753470	0.184420
H1411	H141	0.593330	0.715070	0.172970
C1771	C177	0.656930	0.821870	0.199790
H1421	H142	0.731130	0.839970	0.200770
C1781	C178	0.497030	0.813170	0.205650
H1431	H143	0.442830	0.826170	0.211970
C1791	C179	0.647630	0.932270	0.232530
C1801	C180	0.750730	0.964070	0.241090
H1441	H144	0.794830	0.937470	0.234870
N1061	N106	0.480630	0.748470	0.187920
N1071	N107	0.602330	0.858870	0.213650
N1081	N108	0.582630	0.965370	0.240660
Co11	Co1	0.000000	0.000000	0.000000
Co21	Co2	0.666670	0.333330	0.333330
Co31	Co3	0.333330	0.666670	0.666670
Co41	Co4	0.000000	0.000000	0.500000
Co51	Co5	0.666670	0.333330	0.833330
Co61	Co6	0.333330	0.666670	0.166670
