data_VUZVER_clean_PM
_symmetry_space_group_name_H-M	'P1'
_cell_length_a	17.937000
_cell_length_b	6.429900
_cell_length_c	4.493600
_cell_angle_alpha	90.000000
_cell_angle_beta	90.000000
_cell_angle_gamma	90.000000
_symmetry_Int_Tables_number 1

loop_
_symmetry_equiv_pos_as_xyz
'x,y,z'

loop_
_atom_site_label
_atom_site_type_symbol
_atom_site_fract_x
_atom_site_fract_y
_atom_site_fract_z
O11	O1	0.417600	0.954300	0.704000
O21	O2	0.082400	0.545700	0.704000
O31	O3	0.582400	0.454300	0.296000
O41	O4	0.917600	0.045700	0.296000
O51	O5	0.582400	0.045700	0.296000
O61	O6	0.917600	0.454300	0.296000
O71	O7	0.417600	0.545700	0.704000
O81	O8	0.082400	0.954300	0.704000
Ni11	Ni1	0.500000	0.000000	0.000000
Ni21	Ni2	0.000000	0.500000	0.000000
Ni31	Ni3	0.500000	0.500000	0.000000
Ni41	Ni4	0.000000	0.000000	0.000000
Ni51	Ni5	0.591700	0.750000	0.369000
P11	P1	0.410600	0.750000	0.513000
O91	O9	0.568700	0.750000	0.823000
O101	O10	0.472900	0.750000	0.262000
C11	C1	0.322700	0.750000	0.342000
Ni61	Ni6	0.908300	0.750000	0.369000
P21	P2	0.089400	0.750000	0.513000
O111	O11	0.931300	0.750000	0.823000
O121	O12	0.027100	0.750000	0.262000
C21	C2	0.177300	0.750000	0.342000
Ni71	Ni7	0.408300	0.250000	0.631000
P31	P3	0.589400	0.250000	0.487000
O131	O13	0.431300	0.250000	0.177000
O141	O14	0.527100	0.250000	0.738000
C31	C3	0.677300	0.250000	0.658000
Ni81	Ni8	0.091700	0.250000	0.631000
P41	P4	0.910600	0.250000	0.487000
O151	O15	0.068700	0.250000	0.177000
O161	O16	0.972900	0.250000	0.738000
C41	C4	0.822700	0.250000	0.658000
C51	C5	0.250000	0.750000	0.537000
C61	C6	0.750000	0.250000	0.463000
