data_WABTOK_clean_PM
_symmetry_space_group_name_H-M	'P1'
_cell_length_a	10.274000
_cell_length_b	10.274000
_cell_length_c	11.594300
_cell_angle_alpha	80.554600
_cell_angle_beta	80.554600
_cell_angle_gamma	85.038100
_symmetry_Int_Tables_number 1

loop_
_symmetry_equiv_pos_as_xyz
'x,y,z'

loop_
_atom_site_label
_atom_site_type_symbol
_atom_site_fract_x
_atom_site_fract_y
_atom_site_fract_z
Cd11	Cd1	0.859370	0.479680	0.421320
Cd21	Cd2	0.520320	0.140630	0.078680
Cd31	Cd3	0.140630	0.520320	0.578680
Cd41	Cd4	0.479680	0.859370	0.921320
Cd51	Cd5	0.774110	0.225890	0.250000
Cd61	Cd6	0.225890	0.774110	0.750000
H11	H1	0.585500	0.652100	0.344900
H21	H2	0.501700	0.683500	0.464200
H31	H3	0.471000	0.466000	0.354300
H41	H4	0.369900	0.589100	0.361300
H51	H5	0.347900	0.414500	0.155100
H61	H6	0.316500	0.498300	0.035800
H71	H7	0.534000	0.529000	0.145700
H81	H8	0.410900	0.630100	0.138700
H91	H9	0.414500	0.347900	0.655100
H101	H10	0.498300	0.316500	0.535800
H111	H11	0.529000	0.534000	0.645700
H121	H12	0.630100	0.410900	0.638700
H131	H13	0.652100	0.585500	0.844900
H141	H14	0.683500	0.501700	0.964200
H151	H15	0.466000	0.471000	0.854300
H161	H16	0.589100	0.369900	0.861300
C11	C1	0.540100	0.612700	0.421000
C21	C2	0.433300	0.532500	0.402800
C31	C3	0.387300	0.459900	0.079000
C41	C4	0.467500	0.566700	0.097200
C51	C5	0.459900	0.387300	0.579000
C61	C6	0.566700	0.467500	0.597200
C71	C7	0.612700	0.540100	0.921000
C81	C8	0.532500	0.433300	0.902800
Cl11	Cl1	0.803160	0.477060	0.209720
Cl21	Cl2	0.767860	0.185700	0.033460
Cl31	Cl3	0.889450	0.510410	0.635720
Cl41	Cl4	0.522940	0.196840	0.290280
Cl51	Cl5	0.814300	0.232140	0.466540
Cl61	Cl6	0.489590	0.110550	0.864280
Cl71	Cl7	0.196840	0.522940	0.790280
Cl81	Cl8	0.232140	0.814300	0.966540
Cl91	Cl9	0.110550	0.489590	0.364280
Cl101	Cl10	0.477060	0.803160	0.709720
Cl111	Cl11	0.185700	0.767860	0.533460
Cl121	Cl12	0.510410	0.889450	0.135720
O11	O1	0.633130	0.531290	0.485900
O21	O2	0.468710	0.366870	0.014100
O31	O3	0.366870	0.468710	0.514100
O41	O4	0.531290	0.633130	0.985900
