data_WABVIF04_clean_PM
_symmetry_space_group_name_H-M	'P1'
_cell_length_a	9.058200
_cell_length_b	9.058200
_cell_length_c	12.566000
_cell_angle_alpha	90.000000
_cell_angle_beta	90.000000
_cell_angle_gamma	90.000000
_symmetry_Int_Tables_number 1

loop_
_symmetry_equiv_pos_as_xyz
'x,y,z'

loop_
_atom_site_label
_atom_site_type_symbol
_atom_site_fract_x
_atom_site_fract_y
_atom_site_fract_z
C11	C1	0.757600	0.541700	0.120200
O11	O1	0.885600	0.598000	0.137890
O21	O2	0.685100	0.596800	0.038740
O31	O3	0.703200	0.440400	0.175850
C21	C2	0.242400	0.458300	0.120200
O41	O4	0.114400	0.402000	0.137890
O51	O5	0.314900	0.403200	0.038740
O61	O6	0.296800	0.559600	0.175850
C31	C3	0.541700	0.242400	0.879800
O71	O7	0.598000	0.114400	0.862110
O81	O8	0.596800	0.314900	0.961260
O91	O9	0.440400	0.296800	0.824150
C41	C4	0.458300	0.757600	0.879800
O101	O10	0.402000	0.885600	0.862110
O111	O11	0.403200	0.685100	0.961260
O121	O12	0.559600	0.703200	0.824150
C51	C5	0.257600	0.958300	0.620200
O131	O13	0.385600	0.902000	0.637890
O141	O14	0.185100	0.903200	0.538740
O151	O15	0.203200	0.059600	0.675850
C61	C6	0.742400	0.041700	0.620200
O161	O16	0.614400	0.098000	0.637890
O171	O17	0.814900	0.096800	0.538740
O181	O18	0.796800	0.940400	0.675850
C71	C7	0.041700	0.257600	0.379800
O191	O19	0.098000	0.385600	0.362110
O201	O20	0.096800	0.185100	0.461260
O211	O21	0.940400	0.203200	0.324150
C81	C8	0.958300	0.742400	0.379800
O221	O22	0.902000	0.614400	0.362110
O231	O23	0.903200	0.814900	0.461260
O241	O24	0.059600	0.796800	0.324150
Cu11	Cu1	0.000000	0.500000	0.250000
Cu21	Cu2	0.500000	0.000000	0.750000
Cu31	Cu3	0.500000	0.500000	0.000000
Cu41	Cu4	0.000000	0.000000	0.500000
