data_WABVOL_clean_PM
_symmetry_space_group_name_H-M	'P1'
_cell_length_a	14.382800
_cell_length_b	14.382800
_cell_length_c	14.382800
_cell_angle_alpha	90.000000
_cell_angle_beta	90.000000
_cell_angle_gamma	90.000000
_symmetry_Int_Tables_number 1

loop_
_symmetry_equiv_pos_as_xyz
'x,y,z'

loop_
_atom_site_label
_atom_site_type_symbol
_atom_site_fract_x
_atom_site_fract_y
_atom_site_fract_z
K11	K1	0.385000	0.000000	0.000000
K21	K2	0.885000	0.500000	0.500000
K31	K3	0.615000	0.000000	0.000000
K41	K4	0.115000	0.500000	0.500000
K51	K5	0.000000	0.385000	0.000000
K61	K6	0.500000	0.885000	0.500000
K71	K7	0.000000	0.615000	0.000000
K81	K8	0.500000	0.115000	0.500000
K91	K9	0.000000	0.000000	0.385000
K101	K10	0.500000	0.500000	0.885000
K111	K11	0.000000	0.000000	0.615000
K121	K12	0.500000	0.500000	0.115000
Cu11	Cu1	0.500000	0.000000	0.250000
Cu21	Cu2	0.500000	0.000000	0.750000
Cu31	Cu3	0.250000	0.500000	0.000000
Cu41	Cu4	0.750000	0.500000	0.000000
Cu51	Cu5	0.000000	0.250000	0.500000
Cu61	Cu6	0.000000	0.750000	0.500000
Cu71	Cu7	0.500000	0.250000	0.000000
Cu81	Cu8	0.000000	0.500000	0.750000
Cu91	Cu9	0.000000	0.500000	0.250000
Cu101	Cu10	0.500000	0.750000	0.000000
Cu111	Cu11	0.250000	0.000000	0.500000
Cu121	Cu12	0.750000	0.000000	0.500000
O11	O1	0.641100	0.000000	0.249100
O21	O2	0.141100	0.500000	0.749100
O31	O3	0.358900	0.000000	0.249100
O41	O4	0.858900	0.500000	0.749100
O51	O5	0.358900	0.000000	0.750900
O61	O6	0.858900	0.500000	0.250900
O71	O7	0.641100	0.000000	0.750900
O81	O8	0.141100	0.500000	0.250900
O91	O9	0.249100	0.641100	0.000000
O101	O10	0.749100	0.141100	0.500000
O111	O11	0.249100	0.358900	0.000000
O121	O12	0.749100	0.858900	0.500000
O131	O13	0.750900	0.358900	0.000000
O141	O14	0.250900	0.858900	0.500000
O151	O15	0.750900	0.641100	0.000000
O161	O16	0.250900	0.141100	0.500000
O171	O17	0.000000	0.249100	0.641100
O181	O18	0.500000	0.749100	0.141100
O191	O19	0.000000	0.249100	0.358900
O201	O20	0.500000	0.749100	0.858900
O211	O21	0.000000	0.750900	0.358900
O221	O22	0.500000	0.250900	0.858900
O231	O23	0.000000	0.750900	0.641100
O241	O24	0.500000	0.250900	0.141100
O251	O25	0.000000	0.641100	0.750900
O261	O26	0.500000	0.141100	0.250900
O271	O27	0.000000	0.358900	0.750900
O281	O28	0.500000	0.858900	0.250900
O291	O29	0.000000	0.358900	0.249100
O301	O30	0.500000	0.858900	0.749100
O311	O31	0.000000	0.641100	0.249100
O321	O32	0.500000	0.141100	0.749100
O331	O33	0.641100	0.249100	0.000000
O341	O34	0.141100	0.749100	0.500000
O351	O35	0.358900	0.249100	0.000000
O361	O36	0.858900	0.749100	0.500000
O371	O37	0.358900	0.750900	0.000000
O381	O38	0.858900	0.250900	0.500000
O391	O39	0.641100	0.750900	0.000000
O401	O40	0.141100	0.250900	0.500000
O411	O41	0.249100	0.000000	0.358900
O421	O42	0.749100	0.500000	0.858900
O431	O43	0.249100	0.000000	0.641100
O441	O44	0.749100	0.500000	0.141100
O451	O45	0.750900	0.000000	0.641100
O461	O46	0.250900	0.500000	0.141100
O471	O47	0.750900	0.000000	0.358900
O481	O48	0.250900	0.500000	0.858900
C11	C1	0.665600	0.000000	0.334400
O491	O49	0.602400	0.000000	0.397600
C21	C2	0.165600	0.500000	0.834400
O501	O50	0.102400	0.500000	0.897600
C31	C3	0.334400	0.000000	0.334400
O511	O51	0.397600	0.000000	0.397600
C41	C4	0.834400	0.500000	0.834400
O521	O52	0.897600	0.500000	0.897600
C51	C5	0.334400	0.000000	0.665600
O531	O53	0.397600	0.000000	0.602400
C61	C6	0.834400	0.500000	0.165600
O541	O54	0.897600	0.500000	0.102400
C71	C7	0.665600	0.000000	0.665600
O551	O55	0.602400	0.000000	0.602400
C81	C8	0.165600	0.500000	0.165600
O561	O56	0.102400	0.500000	0.102400
C91	C9	0.334400	0.665600	0.000000
O571	O57	0.397600	0.602400	0.000000
C101	C10	0.834400	0.165600	0.500000
O581	O58	0.897600	0.102400	0.500000
C111	C11	0.334400	0.334400	0.000000
O591	O59	0.397600	0.397600	0.000000
C121	C12	0.834400	0.834400	0.500000
O601	O60	0.897600	0.897600	0.500000
C131	C13	0.665600	0.334400	0.000000
O611	O61	0.602400	0.397600	0.000000
C141	C14	0.165600	0.834400	0.500000
O621	O62	0.102400	0.897600	0.500000
C151	C15	0.665600	0.665600	0.000000
O631	O63	0.602400	0.602400	0.000000
C161	C16	0.165600	0.165600	0.500000
O641	O64	0.102400	0.102400	0.500000
C171	C17	0.000000	0.334400	0.665600
O651	O65	0.000000	0.397600	0.602400
C181	C18	0.500000	0.834400	0.165600
O661	O66	0.500000	0.897600	0.102400
C191	C19	0.000000	0.334400	0.334400
O671	O67	0.000000	0.397600	0.397600
C201	C20	0.500000	0.834400	0.834400
O681	O68	0.500000	0.897600	0.897600
C211	C21	0.000000	0.665600	0.334400
O691	O69	0.000000	0.602400	0.397600
C221	C22	0.500000	0.165600	0.834400
O701	O70	0.500000	0.102400	0.897600
C231	C23	0.000000	0.665600	0.665600
O711	O71	0.000000	0.602400	0.602400
C241	C24	0.500000	0.165600	0.165600
O721	O72	0.500000	0.102400	0.102400
