data_WABVUR_clean_PM
_symmetry_space_group_name_H-M	'P1'
_cell_length_a	14.322800
_cell_length_b	14.322800
_cell_length_c	14.322800
_cell_angle_alpha	90.000000
_cell_angle_beta	90.000000
_cell_angle_gamma	90.000000
_symmetry_Int_Tables_number 1

loop_
_symmetry_equiv_pos_as_xyz
'x,y,z'

loop_
_atom_site_label
_atom_site_type_symbol
_atom_site_fract_x
_atom_site_fract_y
_atom_site_fract_z
Cu11	Cu1	0.500000	0.000000	0.250000
Cu21	Cu2	0.500000	0.000000	0.750000
Cu31	Cu3	0.250000	0.500000	0.000000
Cu41	Cu4	0.750000	0.500000	0.000000
Cu51	Cu5	0.000000	0.250000	0.500000
Cu61	Cu6	0.000000	0.750000	0.500000
Cu71	Cu7	0.500000	0.250000	0.000000
Cu81	Cu8	0.000000	0.500000	0.750000
Cu91	Cu9	0.000000	0.500000	0.250000
Cu101	Cu10	0.500000	0.750000	0.000000
Cu111	Cu11	0.250000	0.000000	0.500000
Cu121	Cu12	0.750000	0.000000	0.500000
O11	O1	0.500000	0.859600	0.250100
O21	O2	0.000000	0.359600	0.750100
O31	O3	0.500000	0.140400	0.250100
O41	O4	0.000000	0.640400	0.750100
O51	O5	0.500000	0.859600	0.749900
O61	O6	0.000000	0.359600	0.249900
O71	O7	0.500000	0.140400	0.749900
O81	O8	0.000000	0.640400	0.249900
O91	O9	0.250100	0.500000	0.859600
O101	O10	0.750100	0.000000	0.359600
O111	O11	0.250100	0.500000	0.140400
O121	O12	0.750100	0.000000	0.640400
O131	O13	0.749900	0.500000	0.859600
O141	O14	0.249900	0.000000	0.359600
O151	O15	0.749900	0.500000	0.140400
O161	O16	0.249900	0.000000	0.640400
O171	O17	0.859600	0.250100	0.500000
O181	O18	0.359600	0.750100	0.000000
O191	O19	0.140400	0.250100	0.500000
O201	O20	0.640400	0.750100	0.000000
O211	O21	0.859600	0.749900	0.500000
O221	O22	0.359600	0.249900	0.000000
O231	O23	0.140400	0.749900	0.500000
O241	O24	0.640400	0.249900	0.000000
O251	O25	0.859600	0.500000	0.749900
O261	O26	0.359600	0.000000	0.249900
O271	O27	0.140400	0.500000	0.749900
O281	O28	0.640400	0.000000	0.249900
O291	O29	0.859600	0.500000	0.250100
O301	O30	0.359600	0.000000	0.750100
O311	O31	0.140400	0.500000	0.250100
O321	O32	0.640400	0.000000	0.750100
O331	O33	0.500000	0.250100	0.140400
O341	O34	0.000000	0.750100	0.640400
O351	O35	0.500000	0.250100	0.859600
O361	O36	0.000000	0.750100	0.359600
O371	O37	0.500000	0.749900	0.140400
O381	O38	0.000000	0.249900	0.640400
O391	O39	0.500000	0.749900	0.859600
O401	O40	0.000000	0.249900	0.359600
O411	O41	0.250100	0.859600	0.500000
O421	O42	0.750100	0.359600	0.000000
O431	O43	0.250100	0.140400	0.500000
O441	O44	0.750100	0.640400	0.000000
O451	O45	0.749900	0.859600	0.500000
O461	O46	0.249900	0.359600	0.000000
O471	O47	0.749900	0.140400	0.500000
O481	O48	0.249900	0.640400	0.000000
C11	C1	0.500000	0.837600	0.162400
O491	O49	0.500000	0.899300	0.100700
C21	C2	0.000000	0.337600	0.662400
O501	O50	0.000000	0.399300	0.600700
C31	C3	0.500000	0.162400	0.162400
O511	O51	0.500000	0.100700	0.100700
C41	C4	0.000000	0.662400	0.662400
O521	O52	0.000000	0.600700	0.600700
C51	C5	0.500000	0.837600	0.837600
O531	O53	0.500000	0.899300	0.899300
C61	C6	0.000000	0.337600	0.337600
O541	O54	0.000000	0.399300	0.399300
C71	C7	0.500000	0.162400	0.837600
O551	O55	0.500000	0.100700	0.899300
C81	C8	0.000000	0.662400	0.337600
O561	O56	0.000000	0.600700	0.399300
C91	C9	0.162400	0.500000	0.837600
O571	O57	0.100700	0.500000	0.899300
C101	C10	0.662400	0.000000	0.337600
O581	O58	0.600700	0.000000	0.399300
C111	C11	0.162400	0.500000	0.162400
O591	O59	0.100700	0.500000	0.100700
C121	C12	0.662400	0.000000	0.662400
O601	O60	0.600700	0.000000	0.600700
C131	C13	0.837600	0.500000	0.837600
O611	O61	0.899300	0.500000	0.899300
C141	C14	0.337600	0.000000	0.337600
O621	O62	0.399300	0.000000	0.399300
C151	C15	0.837600	0.500000	0.162400
O631	O63	0.899300	0.500000	0.100700
C161	C16	0.337600	0.000000	0.662400
O641	O64	0.399300	0.000000	0.600700
C171	C17	0.837600	0.162400	0.500000
O651	O65	0.899300	0.100700	0.500000
C181	C18	0.337600	0.662400	0.000000
O661	O66	0.399300	0.600700	0.000000
C191	C19	0.162400	0.162400	0.500000
O671	O67	0.100700	0.100700	0.500000
C201	C20	0.662400	0.662400	0.000000
O681	O68	0.600700	0.600700	0.000000
C211	C21	0.837600	0.837600	0.500000
O691	O69	0.899300	0.899300	0.500000
C221	C22	0.337600	0.337600	0.000000
O701	O70	0.399300	0.399300	0.000000
C231	C23	0.162400	0.837600	0.500000
O711	O71	0.100700	0.899300	0.500000
C241	C24	0.662400	0.337600	0.000000
O721	O72	0.600700	0.399300	0.000000
Li11	Li1	0.500000	0.000000	0.000000
Li21	Li2	0.000000	0.500000	0.500000
Li31	Li3	0.000000	0.500000	0.000000
Li41	Li4	0.500000	0.000000	0.500000
Li51	Li5	0.000000	0.000000	0.500000
Li61	Li6	0.500000	0.500000	0.000000
