data_WABVIF03_clean_PM
_symmetry_space_group_name_H-M	'P1'
_cell_length_a	8.804800
_cell_length_b	8.804800
_cell_length_c	12.031000
_cell_angle_alpha	90.000000
_cell_angle_beta	90.000000
_cell_angle_gamma	90.000000
_symmetry_Int_Tables_number 1

loop_
_symmetry_equiv_pos_as_xyz
'x,y,z'

loop_
_atom_site_label
_atom_site_type_symbol
_atom_site_fract_x
_atom_site_fract_y
_atom_site_fract_z
C11	C1	0.765500	0.545200	0.115900
O11	O1	0.890500	0.613500	0.133800
O21	O2	0.685000	0.606000	0.032400
O31	O3	0.714500	0.441400	0.174200
C21	C2	0.234500	0.454800	0.115900
O41	O4	0.109500	0.386500	0.133800
O51	O5	0.315000	0.394000	0.032400
O61	O6	0.285500	0.558600	0.174200
C31	C3	0.545200	0.234500	0.884100
O71	O7	0.613500	0.109500	0.866200
O81	O8	0.606000	0.315000	0.967600
O91	O9	0.441400	0.285500	0.825800
C41	C4	0.454800	0.765500	0.884100
O101	O10	0.386500	0.890500	0.866200
O111	O11	0.394000	0.685000	0.967600
O121	O12	0.558600	0.714500	0.825800
C51	C5	0.265500	0.954800	0.615900
O131	O13	0.390500	0.886500	0.633800
O141	O14	0.185000	0.894000	0.532400
O151	O15	0.214500	0.058600	0.674200
C61	C6	0.734500	0.045200	0.615900
O161	O16	0.609500	0.113500	0.633800
O171	O17	0.815000	0.106000	0.532400
O181	O18	0.785500	0.941400	0.674200
C71	C7	0.045200	0.265500	0.384100
O191	O19	0.113500	0.390500	0.366200
O201	O20	0.106000	0.185000	0.467600
O211	O21	0.941400	0.214500	0.325800
C81	C8	0.954800	0.734500	0.384100
O221	O22	0.886500	0.609500	0.366200
O231	O23	0.894000	0.815000	0.467600
O241	O24	0.058600	0.785500	0.325800
Cu11	Cu1	0.000000	0.500000	0.250000
Cu21	Cu2	0.500000	0.000000	0.750000
Cu31	Cu3	0.500000	0.500000	0.000000
Cu41	Cu4	0.000000	0.000000	0.500000
