data_WABVIF01_clean_PM
_symmetry_space_group_name_H-M	'P1'
_cell_length_a	8.966400
_cell_length_b	8.966400
_cell_length_c	12.354800
_cell_angle_alpha	90.000000
_cell_angle_beta	90.000000
_cell_angle_gamma	90.000000
_symmetry_Int_Tables_number 1

loop_
_symmetry_equiv_pos_as_xyz
'x,y,z'

loop_
_atom_site_label
_atom_site_type_symbol
_atom_site_fract_x
_atom_site_fract_y
_atom_site_fract_z
C11	C1	0.760500	0.544200	0.119000
O11	O1	0.886700	0.602700	0.137100
O21	O2	0.685300	0.600400	0.036900
O31	O3	0.706500	0.440600	0.175200
C21	C2	0.239500	0.455800	0.119000
O41	O4	0.113300	0.397300	0.137100
O51	O5	0.314700	0.399600	0.036900
O61	O6	0.293500	0.559400	0.175200
C31	C3	0.544200	0.239500	0.881000
O71	O7	0.602700	0.113300	0.862900
O81	O8	0.600400	0.314700	0.963100
O91	O9	0.440600	0.293500	0.824800
C41	C4	0.455800	0.760500	0.881000
O101	O10	0.397300	0.886700	0.862900
O111	O11	0.399600	0.685300	0.963100
O121	O12	0.559400	0.706500	0.824800
C51	C5	0.260500	0.955800	0.619000
O131	O13	0.386700	0.897300	0.637100
O141	O14	0.185300	0.899600	0.536900
O151	O15	0.206500	0.059400	0.675200
C61	C6	0.739500	0.044200	0.619000
O161	O16	0.613300	0.102700	0.637100
O171	O17	0.814700	0.100400	0.536900
O181	O18	0.793500	0.940600	0.675200
C71	C7	0.044200	0.260500	0.381000
O191	O19	0.102700	0.386700	0.362900
O201	O20	0.100400	0.185300	0.463100
O211	O21	0.940600	0.206500	0.324800
C81	C8	0.955800	0.739500	0.381000
O221	O22	0.897300	0.613300	0.362900
O231	O23	0.899600	0.814700	0.463100
O241	O24	0.059400	0.793500	0.324800
Cu11	Cu1	0.000000	0.500000	0.250000
Cu21	Cu2	0.500000	0.000000	0.750000
Cu31	Cu3	0.500000	0.500000	0.000000
Cu41	Cu4	0.000000	0.000000	0.500000
