data_WABVIF02_clean_PM
_symmetry_space_group_name_H-M	'P1'
_cell_length_a	8.864500
_cell_length_b	8.864500
_cell_length_c	12.119100
_cell_angle_alpha	90.000000
_cell_angle_beta	90.000000
_cell_angle_gamma	90.000000
_symmetry_Int_Tables_number 1

loop_
_symmetry_equiv_pos_as_xyz
'x,y,z'

loop_
_atom_site_label
_atom_site_type_symbol
_atom_site_fract_x
_atom_site_fract_y
_atom_site_fract_z
C11	C1	0.764700	0.544900	0.117400
O11	O1	0.889000	0.608100	0.134400
O21	O2	0.684300	0.602300	0.033800
O31	O3	0.713100	0.441700	0.175200
C21	C2	0.235300	0.455100	0.117400
O41	O4	0.111000	0.391900	0.134400
O51	O5	0.315700	0.397700	0.033800
O61	O6	0.286900	0.558300	0.175200
C31	C3	0.544900	0.235300	0.882600
O71	O7	0.608100	0.111000	0.865600
O81	O8	0.602300	0.315700	0.966200
O91	O9	0.441700	0.286900	0.824800
C41	C4	0.455100	0.764700	0.882600
O101	O10	0.391900	0.889000	0.865600
O111	O11	0.397700	0.684300	0.966200
O121	O12	0.558300	0.713100	0.824800
C51	C5	0.264700	0.955100	0.617400
O131	O13	0.389000	0.891900	0.634400
O141	O14	0.184300	0.897700	0.533800
O151	O15	0.213100	0.058300	0.675200
C61	C6	0.735300	0.044900	0.617400
O161	O16	0.611000	0.108100	0.634400
O171	O17	0.815700	0.102300	0.533800
O181	O18	0.786900	0.941700	0.675200
C71	C7	0.044900	0.264700	0.382600
O191	O19	0.108100	0.389000	0.365600
O201	O20	0.102300	0.184300	0.466200
O211	O21	0.941700	0.213100	0.324800
C81	C8	0.955100	0.735300	0.382600
O221	O22	0.891900	0.611000	0.365600
O231	O23	0.897700	0.815700	0.466200
O241	O24	0.058300	0.786900	0.324800
Cu11	Cu1	0.000000	0.500000	0.250000
Cu21	Cu2	0.500000	0.000000	0.750000
Cu31	Cu3	0.500000	0.500000	0.000000
Cu41	Cu4	0.000000	0.000000	0.500000
