data_WABWEC_clean_PM
_symmetry_space_group_name_H-M	'P1'
_cell_length_a	14.527500
_cell_length_b	14.527500
_cell_length_c	14.527500
_cell_angle_alpha	90.000000
_cell_angle_beta	90.000000
_cell_angle_gamma	90.000000
_symmetry_Int_Tables_number 1

loop_
_symmetry_equiv_pos_as_xyz
'x,y,z'

loop_
_atom_site_label
_atom_site_type_symbol
_atom_site_fract_x
_atom_site_fract_y
_atom_site_fract_z
Cu11	Cu1	0.000000	0.500000	0.750000
Cu21	Cu2	0.000000	0.500000	0.250000
Cu31	Cu3	0.750000	0.000000	0.500000
Cu41	Cu4	0.250000	0.000000	0.500000
Cu51	Cu5	0.500000	0.750000	0.000000
Cu61	Cu6	0.500000	0.250000	0.000000
Cu71	Cu7	0.500000	0.000000	0.250000
Cu81	Cu8	0.500000	0.000000	0.750000
Cu91	Cu9	0.000000	0.750000	0.500000
Cu101	Cu10	0.000000	0.250000	0.500000
Cu111	Cu11	0.750000	0.500000	0.000000
Cu121	Cu12	0.250000	0.500000	0.000000
C11	C1	0.829700	0.500000	0.829700
O11	O1	0.891500	0.500000	0.891500
C21	C2	0.329700	0.000000	0.329700
O21	O2	0.391500	0.000000	0.391500
C31	C3	0.170300	0.500000	0.829700
O31	O3	0.108500	0.500000	0.891500
C41	C4	0.670300	0.000000	0.329700
O41	O4	0.608500	0.000000	0.391500
C51	C5	0.170300	0.500000	0.170300
O51	O5	0.108500	0.500000	0.108500
C61	C6	0.670300	0.000000	0.670300
O61	O6	0.608500	0.000000	0.608500
C71	C7	0.829700	0.500000	0.170300
O71	O7	0.891500	0.500000	0.108500
C81	C8	0.329700	0.000000	0.670300
O81	O8	0.391500	0.000000	0.608500
C91	C9	0.829700	0.829700	0.500000
O91	O9	0.891500	0.891500	0.500000
C101	C10	0.329700	0.329700	0.000000
O101	O10	0.391500	0.391500	0.000000
C111	C11	0.829700	0.170300	0.500000
O111	O11	0.891500	0.108500	0.500000
C121	C12	0.329700	0.670300	0.000000
O121	O12	0.391500	0.608500	0.000000
C131	C13	0.170300	0.170300	0.500000
O131	O13	0.108500	0.108500	0.500000
C141	C14	0.670300	0.670300	0.000000
O141	O14	0.608500	0.608500	0.000000
C151	C15	0.170300	0.829700	0.500000
O151	O15	0.108500	0.891500	0.500000
C161	C16	0.670300	0.329700	0.000000
O161	O16	0.608500	0.391500	0.000000
C171	C17	0.500000	0.829700	0.829700
O171	O17	0.500000	0.891500	0.891500
C181	C18	0.000000	0.329700	0.329700
O181	O18	0.000000	0.391500	0.391500
C191	C19	0.500000	0.829700	0.170300
O191	O19	0.500000	0.891500	0.108500
C201	C20	0.000000	0.329700	0.670300
O201	O20	0.000000	0.391500	0.608500
C211	C21	0.500000	0.170300	0.170300
O211	O21	0.500000	0.108500	0.108500
C221	C22	0.000000	0.670300	0.670300
O221	O22	0.000000	0.608500	0.608500
C231	C23	0.500000	0.170300	0.829700
O231	O23	0.500000	0.108500	0.891500
C241	C24	0.000000	0.670300	0.329700
O241	O24	0.000000	0.608500	0.391500
O251	O25	0.854400	0.500000	0.746700
O261	O26	0.354400	0.000000	0.246700
O271	O27	0.145600	0.500000	0.746700
O281	O28	0.645600	0.000000	0.246700
O291	O29	0.145600	0.500000	0.253300
O301	O30	0.645600	0.000000	0.753300
O311	O31	0.854400	0.500000	0.253300
O321	O32	0.354400	0.000000	0.753300
O331	O33	0.746700	0.854400	0.500000
O341	O34	0.246700	0.354400	0.000000
O351	O35	0.746700	0.145600	0.500000
O361	O36	0.246700	0.645600	0.000000
O371	O37	0.253300	0.145600	0.500000
O381	O38	0.753300	0.645600	0.000000
O391	O39	0.253300	0.854400	0.500000
O401	O40	0.753300	0.354400	0.000000
O411	O41	0.500000	0.746700	0.854400
O421	O42	0.000000	0.246700	0.354400
O431	O43	0.500000	0.746700	0.145600
O441	O44	0.000000	0.246700	0.645600
O451	O45	0.500000	0.253300	0.145600
O461	O46	0.000000	0.753300	0.645600
O471	O47	0.500000	0.253300	0.854400
O481	O48	0.000000	0.753300	0.354400
O491	O49	0.500000	0.854400	0.253300
O501	O50	0.000000	0.354400	0.753300
O511	O51	0.500000	0.145600	0.253300
O521	O52	0.000000	0.645600	0.753300
O531	O53	0.500000	0.145600	0.746700
O541	O54	0.000000	0.645600	0.246700
O551	O55	0.500000	0.854400	0.746700
O561	O56	0.000000	0.354400	0.246700
O571	O57	0.854400	0.746700	0.500000
O581	O58	0.354400	0.246700	0.000000
O591	O59	0.145600	0.746700	0.500000
O601	O60	0.645600	0.246700	0.000000
O611	O61	0.145600	0.253300	0.500000
O621	O62	0.645600	0.753300	0.000000
O631	O63	0.854400	0.253300	0.500000
O641	O64	0.354400	0.753300	0.000000
O651	O65	0.746700	0.500000	0.145600
O661	O66	0.246700	0.000000	0.645600
O671	O67	0.746700	0.500000	0.854400
O681	O68	0.246700	0.000000	0.354400
O691	O69	0.253300	0.500000	0.854400
O701	O70	0.753300	0.000000	0.354400
O711	O71	0.253300	0.500000	0.145600
O721	O72	0.753300	0.000000	0.645600
