data_WAHFUJ01_clean_PM
_symmetry_space_group_name_H-M	'P1'
_cell_length_a	10.782000
_cell_length_b	8.781000
_cell_length_c	25.017000
_cell_angle_alpha	90.000000
_cell_angle_beta	98.139000
_cell_angle_gamma	90.000000
_symmetry_Int_Tables_number 1

loop_
_symmetry_equiv_pos_as_xyz
'x,y,z'

loop_
_atom_site_label
_atom_site_type_symbol
_atom_site_fract_x
_atom_site_fract_y
_atom_site_fract_z
Cu11	Cu1	0.161070	0.220600	0.736500
N11	N1	0.225200	0.182800	0.814670
O11	O1	0.989700	0.180100	0.748370
O21	O2	0.968000	0.997300	0.685640
N21	N2	0.602100	0.233600	0.158070
O31	O3	0.395200	0.973300	0.626100
N31	N3	0.366800	0.136400	0.979000
N41	N4	0.501900	0.929100	0.639750
C11	C1	0.580600	0.011900	0.682400
C21	C2	0.787800	0.085700	0.719950
C31	C3	0.373900	0.256700	0.889390
H11	H1	0.441900	0.317000	0.903200
O41	O4	0.546000	0.816700	0.620450
C41	C4	0.223500	0.065100	0.900170
H21	H2	0.188100	0.994800	0.921400
C51	C5	0.526900	0.090800	0.721580
C61	C6	0.322500	0.267400	0.836330
H31	H3	0.356800	0.336600	0.814400
C71	C7	0.322700	0.154500	0.922140
C81	C8	0.499200	0.214600	0.050740
C91	C9	0.737200	0.162600	0.760060
H41	H4	0.790200	0.212400	0.787100
C101	C10	0.707600	0.008600	0.680940
H51	H5	0.739500	0.954800	0.653900
C111	C11	0.177700	0.081600	0.846180
H61	H6	0.111500	0.020200	0.831200
N51	N5	0.452400	0.221200	0.994380
C121	C12	0.926700	0.083800	0.717190
C131	C13	0.608600	0.166800	0.760750
H71	H7	0.576800	0.221000	0.787700
C141	C14	0.450400	0.128800	0.088940
H81	H8	0.382900	0.063900	0.079100
C151	C15	0.504100	0.141500	0.142230
H91	H9	0.471200	0.084300	0.168200
C161	C16	0.648500	0.313600	0.120420
H101	H10	0.717000	0.376600	0.130900
C171	C17	0.600200	0.307500	0.066780
H111	H11	0.635200	0.365400	0.041600
C181	C18	0.389000	0.091600	0.726900
O51	O5	0.335620	0.220000	0.719680
O61	O6	0.339900	0.973600	0.740160
Cu21	Cu2	0.661070	0.279400	0.236500
N61	N6	0.725200	0.317200	0.314670
O71	O7	0.489700	0.319900	0.248370
O81	O8	0.468000	0.502700	0.185640
N71	N7	0.102100	0.266400	0.658070
O91	O9	0.895200	0.526700	0.126100
N81	N8	0.866800	0.363600	0.479000
N91	N9	0.001900	0.570900	0.139750
C191	C19	0.080600	0.488100	0.182400
C201	C20	0.287800	0.414300	0.219950
C211	C21	0.873900	0.243300	0.389390
H121	H12	0.941900	0.183000	0.403200
O101	O10	0.046000	0.683300	0.120450
C221	C22	0.723500	0.434900	0.400170
H131	H13	0.688100	0.505200	0.421400
C231	C23	0.026900	0.409200	0.221580
C241	C24	0.822500	0.232600	0.336330
H141	H14	0.856800	0.163400	0.314400
C251	C25	0.822700	0.345500	0.422140
C261	C26	0.999200	0.285400	0.550740
C271	C27	0.237200	0.337400	0.260060
H151	H15	0.290200	0.287600	0.287100
C281	C28	0.207600	0.491400	0.180940
H161	H16	0.239500	0.545200	0.153900
C291	C29	0.677700	0.418400	0.346180
H171	H17	0.611500	0.479800	0.331200
N101	N10	0.952400	0.278800	0.494380
C301	C30	0.426700	0.416200	0.217190
C311	C31	0.108600	0.333200	0.260750
H181	H18	0.076800	0.279000	0.287700
C321	C32	0.950400	0.371200	0.588940
H191	H19	0.882900	0.436100	0.579100
C331	C33	0.004100	0.358500	0.642230
H201	H20	0.971200	0.415700	0.668200
C341	C34	0.148500	0.186400	0.620420
H211	H21	0.217000	0.123400	0.630900
C351	C35	0.100200	0.192500	0.566780
H221	H22	0.135200	0.134600	0.541600
C361	C36	0.889000	0.408400	0.226900
O111	O11	0.835620	0.280000	0.219680
O121	O12	0.839900	0.526400	0.240160
Cu31	Cu3	0.338930	0.720600	0.763500
N111	N11	0.274800	0.682800	0.685330
O131	O13	0.510300	0.680100	0.751630
O141	O14	0.532000	0.497300	0.814360
N121	N12	0.897900	0.733600	0.341930
O151	O15	0.104800	0.473300	0.873900
N131	N13	0.133200	0.636400	0.521000
N141	N14	0.998100	0.429100	0.860250
C371	C37	0.919400	0.511900	0.817600
C381	C38	0.712200	0.585700	0.780050
C391	C39	0.126100	0.756700	0.610610
H231	H23	0.058100	0.817000	0.596800
O161	O16	0.954000	0.316700	0.879550
C401	C40	0.276500	0.565100	0.599830
H241	H24	0.311900	0.494800	0.578600
C411	C41	0.973100	0.590800	0.778420
C421	C42	0.177500	0.767400	0.663670
H251	H25	0.143200	0.836600	0.685600
C431	C43	0.177300	0.654500	0.577860
C441	C44	0.000800	0.714600	0.449260
C451	C45	0.762800	0.662600	0.739940
H261	H26	0.709800	0.712400	0.712900
C461	C46	0.792400	0.508600	0.819060
H271	H27	0.760500	0.454800	0.846100
C471	C47	0.322300	0.581600	0.653820
H281	H28	0.388500	0.520200	0.668800
N151	N15	0.047600	0.721200	0.505620
C481	C48	0.573300	0.583800	0.782810
C491	C49	0.891400	0.666800	0.739250
H291	H29	0.923200	0.721000	0.712300
C501	C50	0.049600	0.628800	0.411060
H301	H30	0.117100	0.563900	0.420900
C511	C51	0.995900	0.641500	0.357770
H311	H31	0.028800	0.584300	0.331800
C521	C52	0.851500	0.813600	0.379580
H321	H32	0.783000	0.876600	0.369100
C531	C53	0.899800	0.807500	0.433220
H331	H33	0.864800	0.865400	0.458400
C541	C54	0.111000	0.591600	0.773100
O171	O17	0.164380	0.720000	0.780320
O181	O18	0.160100	0.473600	0.759840
Cu41	Cu4	0.838930	0.779400	0.263500
N161	N16	0.774800	0.817200	0.185330
O191	O19	0.010300	0.819900	0.251630
O201	O20	0.032000	0.002700	0.314360
N171	N17	0.397900	0.766400	0.841930
O211	O21	0.604800	0.026700	0.373900
N181	N18	0.633200	0.863600	0.021000
N191	N19	0.498100	0.070900	0.360250
C551	C55	0.419400	0.988100	0.317600
C561	C56	0.212200	0.914300	0.280050
C571	C57	0.626100	0.743300	0.110610
H341	H34	0.558100	0.683000	0.096800
O221	O22	0.454000	0.183300	0.379550
C581	C58	0.776500	0.934900	0.099830
H351	H35	0.811900	0.005200	0.078600
C591	C59	0.473100	0.909200	0.278420
C601	C60	0.677500	0.732600	0.163670
H361	H36	0.643200	0.663400	0.185600
C611	C61	0.677300	0.845500	0.077860
C621	C62	0.500800	0.785400	0.949260
C631	C63	0.262800	0.837400	0.239940
H371	H37	0.209800	0.787600	0.212900
C641	C64	0.292400	0.991400	0.319060
H381	H38	0.260500	0.045200	0.346100
C651	C65	0.822300	0.918400	0.153820
H391	H39	0.888500	0.979800	0.168800
N201	N20	0.547600	0.778800	0.005620
C661	C66	0.073300	0.916200	0.282810
C671	C67	0.391400	0.833200	0.239250
H401	H40	0.423200	0.779000	0.212300
C681	C68	0.549600	0.871200	0.911060
H411	H41	0.617100	0.936100	0.920900
C691	C69	0.495900	0.858500	0.857770
H421	H42	0.528800	0.915700	0.831800
C701	C70	0.351500	0.686400	0.879580
H431	H43	0.283000	0.623400	0.869100
C711	C71	0.399800	0.692500	0.933220
H441	H44	0.364800	0.634600	0.958400
C721	C72	0.611000	0.908400	0.273100
O231	O23	0.664380	0.780000	0.280320
O241	O24	0.660100	0.026400	0.259840
