data_WAHMEY_clean_PM
_symmetry_space_group_name_H-M	'P1'
_cell_length_a	15.673000
_cell_length_b	15.673000
_cell_length_c	6.950000
_cell_angle_alpha	90.000000
_cell_angle_beta	90.000000
_cell_angle_gamma	120.000000
_symmetry_Int_Tables_number 1

loop_
_symmetry_equiv_pos_as_xyz
'x,y,z'

loop_
_atom_site_label
_atom_site_type_symbol
_atom_site_fract_x
_atom_site_fract_y
_atom_site_fract_z
Au11	Au1	0.261000	0.738750	0.999810
N11	N1	0.405900	0.891400	0.694000
C11	C1	0.350000	0.830700	0.799000
N21	N2	0.515000	0.109800	0.693000
C21	C2	0.519700	0.166500	0.802000
N31	N3	0.373600	0.000500	0.379000
C31	C3	0.285700	0.914700	0.339000
C41	C4	0.206000	0.920200	0.266000
C51	C5	0.214200	0.011500	0.233000
C61	C6	0.302100	0.097300	0.273000
C71	C7	0.381900	0.091800	0.346000
C81	C8	0.109400	0.852000	0.247000
N41	N4	0.020700	0.787000	0.227000
Au21	Au2	0.261250	0.522250	0.999810
N51	N5	0.108600	0.514500	0.694000
C91	C9	0.169300	0.519300	0.799000
N61	N6	0.890200	0.405200	0.693000
C101	C10	0.833500	0.353200	0.802000
N71	N7	0.999500	0.373100	0.379000
C111	C11	0.085300	0.371000	0.339000
C121	C12	0.079800	0.285800	0.266000
C131	C13	0.988500	0.202700	0.233000
C141	C14	0.902700	0.204800	0.273000
C151	C15	0.908200	0.290100	0.346000
C161	C16	0.148000	0.257400	0.247000
N81	N8	0.213000	0.233700	0.227000
Au31	Au3	0.477750	0.739000	0.999810
N91	N9	0.485500	0.594100	0.694000
C171	C17	0.480700	0.650000	0.799000
N101	N10	0.594800	0.485000	0.693000
C181	C18	0.646800	0.480300	0.802000
N111	N11	0.626900	0.626400	0.379000
C191	C19	0.629000	0.714300	0.339000
C201	C20	0.714200	0.794000	0.266000
C211	C21	0.797300	0.785800	0.233000
C221	C22	0.795200	0.697900	0.273000
C231	C23	0.709900	0.618100	0.346000
C241	C24	0.742600	0.890600	0.247000
N121	N12	0.766300	0.979300	0.227000
Au41	Au4	0.739000	0.261250	0.000190
N131	N13	0.594100	0.108600	0.306000
C251	C25	0.650000	0.169300	0.201000
N141	N14	0.485000	0.890200	0.307000
C261	C26	0.480300	0.833500	0.198000
N151	N15	0.626400	0.999500	0.621000
C271	C27	0.714300	0.085300	0.661000
C281	C28	0.794000	0.079800	0.734000
C291	C29	0.785800	0.988500	0.767000
C301	C30	0.697900	0.902700	0.727000
C311	C31	0.618100	0.908200	0.654000
C321	C32	0.890600	0.148000	0.753000
N161	N16	0.979300	0.213000	0.773000
Au51	Au5	0.738750	0.477750	0.000190
N171	N17	0.891400	0.485500	0.306000
C331	C33	0.830700	0.480700	0.201000
N181	N18	0.109800	0.594800	0.307000
C341	C34	0.166500	0.646800	0.198000
N191	N19	0.000500	0.626900	0.621000
C351	C35	0.914700	0.629000	0.661000
C361	C36	0.920200	0.714200	0.734000
C371	C37	0.011500	0.797300	0.767000
C381	C38	0.097300	0.795200	0.727000
C391	C39	0.091800	0.709900	0.654000
C401	C40	0.852000	0.742600	0.753000
N201	N20	0.787000	0.766300	0.773000
Au61	Au6	0.522250	0.261000	0.000190
N211	N21	0.514500	0.405900	0.306000
C411	C41	0.519300	0.350000	0.201000
N221	N22	0.405200	0.515000	0.307000
C421	C42	0.353200	0.519700	0.198000
N231	N23	0.373100	0.373600	0.621000
C431	C43	0.371000	0.285700	0.661000
C441	C44	0.285800	0.206000	0.734000
C451	C45	0.202700	0.214200	0.767000
C461	C46	0.204800	0.302100	0.727000
C471	C47	0.290100	0.381900	0.654000
C481	C48	0.257400	0.109400	0.753000
N241	N24	0.233700	0.020700	0.773000
Fe11	Fe1	0.500000	0.000000	0.500000
Fe21	Fe2	0.000000	0.500000	0.500000
Fe31	Fe3	0.500000	0.500000	0.500000
