data_WAHNOL_clean_PM
_symmetry_space_group_name_H-M	'P1'
_cell_length_a	21.188200
_cell_length_b	21.188200
_cell_length_c	21.188200
_cell_angle_alpha	90.000000
_cell_angle_beta	90.000000
_cell_angle_gamma	90.000000
_symmetry_Int_Tables_number 1

loop_
_symmetry_equiv_pos_as_xyz
'x,y,z'

loop_
_atom_site_label
_atom_site_type_symbol
_atom_site_fract_x
_atom_site_fract_y
_atom_site_fract_z
N11	N1	0.566000	0.693600	0.066600
C11	C1	0.583000	0.754300	0.084900
H11	H1	0.565100	0.789100	0.064900
C21	C2	0.626700	0.763000	0.133000
H21	H2	0.638000	0.803600	0.145300
C31	C3	0.653300	0.711100	0.162900
C41	C4	0.636400	0.650400	0.144600
H31	H3	0.654200	0.615600	0.164600
C51	C5	0.592700	0.641700	0.096400
H41	H4	0.581400	0.601100	0.084200
C61	C6	0.689800	0.721100	0.213800
C71	C7	0.739600	0.681300	0.229100
H51	H5	0.743700	0.645100	0.204600
N21	N2	0.434000	0.306400	0.066600
C81	C8	0.417000	0.245700	0.084900
H61	H6	0.434900	0.210900	0.064900
C91	C9	0.373300	0.237000	0.133000
H71	H7	0.362000	0.196400	0.145300
C101	C10	0.346700	0.288900	0.162900
C111	C11	0.363600	0.349600	0.144600
H81	H8	0.345800	0.384400	0.164600
C121	C12	0.407300	0.358300	0.096400
H91	H9	0.418600	0.398900	0.084200
C131	C13	0.310200	0.278900	0.213800
C141	C14	0.260400	0.318700	0.229100
H101	H10	0.256300	0.354900	0.204600
N31	N3	0.434000	0.693600	0.933400
C151	C15	0.417000	0.754300	0.915100
H111	H11	0.434900	0.789100	0.935100
C161	C16	0.373300	0.763000	0.867000
H121	H12	0.362000	0.803600	0.854700
C171	C17	0.346700	0.711100	0.837100
C181	C18	0.363600	0.650400	0.855400
H131	H13	0.345800	0.615600	0.835400
C191	C19	0.407300	0.641700	0.903600
H141	H14	0.418600	0.601100	0.915800
C201	C20	0.310200	0.721100	0.786200
C211	C21	0.260400	0.681300	0.770900
H151	H15	0.256300	0.645100	0.795400
N41	N4	0.566000	0.306400	0.933400
C221	C22	0.583000	0.245700	0.915100
H161	H16	0.565100	0.210900	0.935100
C231	C23	0.626700	0.237000	0.867000
H171	H17	0.638000	0.196400	0.854700
C241	C24	0.653300	0.288900	0.837100
C251	C25	0.636400	0.349600	0.855400
H181	H18	0.654200	0.384400	0.835400
C261	C26	0.592700	0.358300	0.903600
H191	H19	0.581400	0.398900	0.915800
C271	C27	0.689800	0.278900	0.786200
C281	C28	0.739600	0.318700	0.770900
H201	H20	0.743700	0.354900	0.795400
N51	N5	0.066600	0.566000	0.693600
C291	C29	0.084900	0.583000	0.754300
H211	H21	0.064900	0.565100	0.789100
C301	C30	0.133000	0.626700	0.763000
H221	H22	0.145300	0.638000	0.803600
C311	C31	0.162900	0.653300	0.711100
C321	C32	0.144600	0.636400	0.650400
H231	H23	0.164600	0.654200	0.615600
C331	C33	0.096400	0.592700	0.641700
H241	H24	0.084200	0.581400	0.601100
C341	C34	0.213800	0.689800	0.721100
C351	C35	0.229100	0.739600	0.681300
H251	H25	0.204600	0.743700	0.645100
N61	N6	0.066600	0.434000	0.306400
C361	C36	0.084900	0.417000	0.245700
H261	H26	0.064900	0.434900	0.210900
C371	C37	0.133000	0.373300	0.237000
H271	H27	0.145300	0.362000	0.196400
C381	C38	0.162900	0.346700	0.288900
C391	C39	0.144600	0.363600	0.349600
H281	H28	0.164600	0.345800	0.384400
C401	C40	0.096400	0.407300	0.358300
H291	H29	0.084200	0.418600	0.398900
C411	C41	0.213800	0.310200	0.278900
C421	C42	0.229100	0.260400	0.318700
H301	H30	0.204600	0.256300	0.354900
N71	N7	0.933400	0.434000	0.693600
C431	C43	0.915100	0.417000	0.754300
H311	H31	0.935100	0.434900	0.789100
C441	C44	0.867000	0.373300	0.763000
H321	H32	0.854700	0.362000	0.803600
C451	C45	0.837100	0.346700	0.711100
C461	C46	0.855400	0.363600	0.650400
H331	H33	0.835400	0.345800	0.615600
C471	C47	0.903600	0.407300	0.641700
H341	H34	0.915800	0.418600	0.601100
C481	C48	0.786200	0.310200	0.721100
C491	C49	0.770900	0.260400	0.681300
H351	H35	0.795400	0.256300	0.645100
N81	N8	0.933400	0.566000	0.306400
C501	C50	0.915100	0.583000	0.245700
H361	H36	0.935100	0.565100	0.210900
C511	C51	0.867000	0.626700	0.237000
H371	H37	0.854700	0.638000	0.196400
C521	C52	0.837100	0.653300	0.288900
C531	C53	0.855400	0.636400	0.349600
H381	H38	0.835400	0.654200	0.384400
C541	C54	0.903600	0.592700	0.358300
H391	H39	0.915800	0.581400	0.398900
C551	C55	0.786200	0.689800	0.278900
C561	C56	0.770900	0.739600	0.318700
H401	H40	0.795400	0.743700	0.354900
N91	N9	0.693600	0.066600	0.566000
C571	C57	0.754300	0.084900	0.583000
H411	H41	0.789100	0.064900	0.565100
C581	C58	0.763000	0.133000	0.626700
H421	H42	0.803600	0.145300	0.638000
C591	C59	0.711100	0.162900	0.653300
C601	C60	0.650400	0.144600	0.636400
H431	H43	0.615600	0.164600	0.654200
C611	C61	0.641700	0.096400	0.592700
H441	H44	0.601100	0.084200	0.581400
C621	C62	0.721100	0.213800	0.689800
C631	C63	0.681300	0.229100	0.739600
H451	H45	0.645100	0.204600	0.743700
N101	N10	0.306400	0.066600	0.434000
C641	C64	0.245700	0.084900	0.417000
H461	H46	0.210900	0.064900	0.434900
C651	C65	0.237000	0.133000	0.373300
H471	H47	0.196400	0.145300	0.362000
C661	C66	0.288900	0.162900	0.346700
C671	C67	0.349600	0.144600	0.363600
H481	H48	0.384400	0.164600	0.345800
C681	C68	0.358300	0.096400	0.407300
H491	H49	0.398900	0.084200	0.418600
C691	C69	0.278900	0.213800	0.310200
C701	C70	0.318700	0.229100	0.260400
H501	H50	0.354900	0.204600	0.256300
N111	N11	0.693600	0.933400	0.434000
C711	C71	0.754300	0.915100	0.417000
H511	H51	0.789100	0.935100	0.434900
C721	C72	0.763000	0.867000	0.373300
H521	H52	0.803600	0.854700	0.362000
C731	C73	0.711100	0.837100	0.346700
C741	C74	0.650400	0.855400	0.363600
H531	H53	0.615600	0.835400	0.345800
C751	C75	0.641700	0.903600	0.407300
H541	H54	0.601100	0.915800	0.418600
C761	C76	0.721100	0.786200	0.310200
C771	C77	0.681300	0.770900	0.260400
H551	H55	0.645100	0.795400	0.256300
N121	N12	0.306400	0.933400	0.566000
C781	C78	0.245700	0.915100	0.583000
H561	H56	0.210900	0.935100	0.565100
C791	C79	0.237000	0.867000	0.626700
H571	H57	0.196400	0.854700	0.638000
C801	C80	0.288900	0.837100	0.653300
C811	C81	0.349600	0.855400	0.636400
H581	H58	0.384400	0.835400	0.654200
C821	C82	0.358300	0.903600	0.592700
H591	H59	0.398900	0.915800	0.581400
C831	C83	0.278900	0.786200	0.689800
C841	C84	0.318700	0.770900	0.739600
H601	H60	0.354900	0.795400	0.743700
N131	N13	0.434000	0.306400	0.933400
C851	C85	0.417000	0.245700	0.915100
H611	H61	0.434900	0.210900	0.935100
C861	C86	0.373300	0.237000	0.867000
H621	H62	0.362000	0.196400	0.854700
C871	C87	0.346700	0.288900	0.837100
C881	C88	0.363600	0.349600	0.855400
H631	H63	0.345800	0.384400	0.835400
C891	C89	0.407300	0.358300	0.903600
H641	H64	0.418600	0.398900	0.915800
C901	C90	0.310200	0.278900	0.786200
C911	C91	0.260400	0.318700	0.770900
H651	H65	0.256300	0.354900	0.795400
N141	N14	0.566000	0.693600	0.933400
C921	C92	0.583000	0.754300	0.915100
H661	H66	0.565100	0.789100	0.935100
C931	C93	0.626700	0.763000	0.867000
H671	H67	0.638000	0.803600	0.854700
C941	C94	0.653300	0.711100	0.837100
C951	C95	0.636400	0.650400	0.855400
H681	H68	0.654200	0.615600	0.835400
C961	C96	0.592700	0.641700	0.903600
H691	H69	0.581400	0.601100	0.915800
C971	C97	0.689800	0.721100	0.786200
C981	C98	0.739600	0.681300	0.770900
H701	H70	0.743700	0.645100	0.795400
N151	N15	0.566000	0.306400	0.066600
C991	C99	0.583000	0.245700	0.084900
H711	H71	0.565100	0.210900	0.064900
C1001	C100	0.626700	0.237000	0.133000
H721	H72	0.638000	0.196400	0.145300
C1011	C101	0.653300	0.288900	0.162900
C1021	C102	0.636400	0.349600	0.144600
H731	H73	0.654200	0.384400	0.164600
C1031	C103	0.592700	0.358300	0.096400
H741	H74	0.581400	0.398900	0.084200
C1041	C104	0.689800	0.278900	0.213800
C1051	C105	0.739600	0.318700	0.229100
H751	H75	0.743700	0.354900	0.204600
N161	N16	0.434000	0.693600	0.066600
C1061	C106	0.417000	0.754300	0.084900
H761	H76	0.434900	0.789100	0.064900
C1071	C107	0.373300	0.763000	0.133000
H771	H77	0.362000	0.803600	0.145300
C1081	C108	0.346700	0.711100	0.162900
C1091	C109	0.363600	0.650400	0.144600
H781	H78	0.345800	0.615600	0.164600
C1101	C110	0.407300	0.641700	0.096400
H791	H79	0.418600	0.601100	0.084200
C1111	C111	0.310200	0.721100	0.213800
C1121	C112	0.260400	0.681300	0.229100
H801	H80	0.256300	0.645100	0.204600
N171	N17	0.933400	0.434000	0.306400
C1131	C113	0.915100	0.417000	0.245700
H811	H81	0.935100	0.434900	0.210900
C1141	C114	0.867000	0.373300	0.237000
H821	H82	0.854700	0.362000	0.196400
C1151	C115	0.837100	0.346700	0.288900
C1161	C116	0.855400	0.363600	0.349600
H831	H83	0.835400	0.345800	0.384400
C1171	C117	0.903600	0.407300	0.358300
H841	H84	0.915800	0.418600	0.398900
C1181	C118	0.786200	0.310200	0.278900
C1191	C119	0.770900	0.260400	0.318700
H851	H85	0.795400	0.256300	0.354900
N181	N18	0.933400	0.566000	0.693600
C1201	C120	0.915100	0.583000	0.754300
H861	H86	0.935100	0.565100	0.789100
C1211	C121	0.867000	0.626700	0.763000
H871	H87	0.854700	0.638000	0.803600
C1221	C122	0.837100	0.653300	0.711100
C1231	C123	0.855400	0.636400	0.650400
H881	H88	0.835400	0.654200	0.615600
C1241	C124	0.903600	0.592700	0.641700
H891	H89	0.915800	0.581400	0.601100
C1251	C125	0.786200	0.689800	0.721100
C1261	C126	0.770900	0.739600	0.681300
H901	H90	0.795400	0.743700	0.645100
N191	N19	0.066600	0.566000	0.306400
C1271	C127	0.084900	0.583000	0.245700
H911	H91	0.064900	0.565100	0.210900
C1281	C128	0.133000	0.626700	0.237000
H921	H92	0.145300	0.638000	0.196400
C1291	C129	0.162900	0.653300	0.288900
C1301	C130	0.144600	0.636400	0.349600
H931	H93	0.164600	0.654200	0.384400
C1311	C131	0.096400	0.592700	0.358300
H941	H94	0.084200	0.581400	0.398900
C1321	C132	0.213800	0.689800	0.278900
C1331	C133	0.229100	0.739600	0.318700
H951	H95	0.204600	0.743700	0.354900
N201	N20	0.066600	0.434000	0.693600
C1341	C134	0.084900	0.417000	0.754300
H961	H96	0.064900	0.434900	0.789100
C1351	C135	0.133000	0.373300	0.763000
H971	H97	0.145300	0.362000	0.803600
C1361	C136	0.162900	0.346700	0.711100
C1371	C137	0.144600	0.363600	0.650400
H981	H98	0.164600	0.345800	0.615600
C1381	C138	0.096400	0.407300	0.641700
H991	H99	0.084200	0.418600	0.601100
C1391	C139	0.213800	0.310200	0.721100
C1401	C140	0.229100	0.260400	0.681300
H1001	H100	0.204600	0.256300	0.645100
N211	N21	0.306400	0.933400	0.434000
C1411	C141	0.245700	0.915100	0.417000
H1011	H101	0.210900	0.935100	0.434900
C1421	C142	0.237000	0.867000	0.373300
H1021	H102	0.196400	0.854700	0.362000
C1431	C143	0.288900	0.837100	0.346700
C1441	C144	0.349600	0.855400	0.363600
H1031	H103	0.384400	0.835400	0.345800
C1451	C145	0.358300	0.903600	0.407300
H1041	H104	0.398900	0.915800	0.418600
C1461	C146	0.278900	0.786200	0.310200
C1471	C147	0.318700	0.770900	0.260400
H1051	H105	0.354900	0.795400	0.256300
N221	N22	0.693600	0.933400	0.566000
C1481	C148	0.754300	0.915100	0.583000
H1061	H106	0.789100	0.935100	0.565100
C1491	C149	0.763000	0.867000	0.626700
H1071	H107	0.803600	0.854700	0.638000
C1501	C150	0.711100	0.837100	0.653300
C1511	C151	0.650400	0.855400	0.636400
H1081	H108	0.615600	0.835400	0.654200
C1521	C152	0.641700	0.903600	0.592700
H1091	H109	0.601100	0.915800	0.581400
C1531	C153	0.721100	0.786200	0.689800
C1541	C154	0.681300	0.770900	0.739600
H1101	H110	0.645100	0.795400	0.743700
N231	N23	0.306400	0.066600	0.566000
C1551	C155	0.245700	0.084900	0.583000
H1111	H111	0.210900	0.064900	0.565100
C1561	C156	0.237000	0.133000	0.626700
H1121	H112	0.196400	0.145300	0.638000
C1571	C157	0.288900	0.162900	0.653300
C1581	C158	0.349600	0.144600	0.636400
H1131	H113	0.384400	0.164600	0.654200
C1591	C159	0.358300	0.096400	0.592700
H1141	H114	0.398900	0.084200	0.581400
C1601	C160	0.278900	0.213800	0.689800
C1611	C161	0.318700	0.229100	0.739600
H1151	H115	0.354900	0.204600	0.743700
N241	N24	0.693600	0.066600	0.434000
C1621	C162	0.754300	0.084900	0.417000
H1161	H116	0.789100	0.064900	0.434900
C1631	C163	0.763000	0.133000	0.373300
H1171	H117	0.803600	0.145300	0.362000
C1641	C164	0.711100	0.162900	0.346700
C1651	C165	0.650400	0.144600	0.363600
H1181	H118	0.615600	0.164600	0.345800
C1661	C166	0.641700	0.096400	0.407300
H1191	H119	0.601100	0.084200	0.418600
C1671	C167	0.721100	0.213800	0.310200
C1681	C168	0.681300	0.229100	0.260400
H1201	H120	0.645100	0.204600	0.256300
Cu11	Cu1	0.500000	0.686970	0.000000
Cu21	Cu2	0.500000	0.313030	0.000000
Cu31	Cu3	0.000000	0.500000	0.686970
Cu41	Cu4	0.000000	0.500000	0.313030
Cu51	Cu5	0.686970	0.000000	0.500000
Cu61	Cu6	0.313030	0.000000	0.500000
