data_WAJGIY_clean_PM
_symmetry_space_group_name_H-M	'P1'
_cell_length_a	10.799000
_cell_length_b	10.799000
_cell_length_c	20.897000
_cell_angle_alpha	90.000000
_cell_angle_beta	90.000000
_cell_angle_gamma	90.000000
_symmetry_Int_Tables_number 1

loop_
_symmetry_equiv_pos_as_xyz
'x,y,z'

loop_
_atom_site_label
_atom_site_type_symbol
_atom_site_fract_x
_atom_site_fract_y
_atom_site_fract_z
O11	O1	0.538700	0.119400	0.644600
N11	N1	0.289700	0.050200	0.707800
C11	C1	0.984900	0.116500	0.667000
N21	N2	0.974700	0.174400	0.621700
N31	N3	0.536500	0.114000	0.778700
C21	C2	0.194000	0.030200	0.721000
C31	C3	0.608800	0.218500	0.653800
C41	C4	0.643300	0.263300	0.711600
H11	H1	0.719000	0.351000	0.708000
C51	C5	0.651200	0.280500	0.592900
H21	H2	0.618000	0.236900	0.556700
H31	H3	0.740000	0.279300	0.590900
H41	H4	0.622600	0.364600	0.592300
C61	C6	0.601900	0.219600	0.771500
C71	C7	0.633600	0.294900	0.830800
H51	H5	0.600100	0.254800	0.867900
H61	H6	0.598700	0.376300	0.826900
H71	H7	0.721900	0.301100	0.834900
C81	C8	0.495700	0.060500	0.839200
H81	H8	0.545900	0.093800	0.873700
H91	H9	0.410400	0.084200	0.847100
O21	O2	0.461300	0.880600	0.644600
N41	N4	0.710300	0.949800	0.707800
C91	C9	0.015100	0.883500	0.667000
N51	N5	0.025300	0.825600	0.621700
N61	N6	0.463500	0.886000	0.778700
C101	C10	0.806000	0.969800	0.721000
C111	C11	0.391200	0.781500	0.653800
C121	C12	0.356700	0.736700	0.711600
H101	H10	0.281000	0.649000	0.708000
C131	C13	0.348800	0.719500	0.592900
H111	H11	0.382000	0.763100	0.556700
H121	H12	0.260000	0.720700	0.590900
H131	H13	0.377400	0.635400	0.592300
C141	C14	0.398100	0.780400	0.771500
C151	C15	0.366400	0.705100	0.830800
H141	H14	0.399900	0.745200	0.867900
H151	H15	0.401300	0.623700	0.826900
H161	H16	0.278100	0.698900	0.834900
C161	C16	0.504300	0.939500	0.839200
H171	H17	0.454100	0.906200	0.873700
H181	H18	0.589600	0.915800	0.847100
O31	O3	0.880600	0.538700	0.144600
N71	N7	0.949800	0.289700	0.207800
C171	C17	0.883500	0.984900	0.167000
N81	N8	0.825600	0.974700	0.121700
N91	N9	0.886000	0.536500	0.278700
C181	C18	0.969800	0.194000	0.221000
C191	C19	0.781500	0.608800	0.153800
C201	C20	0.736700	0.643300	0.211600
H191	H19	0.649000	0.719000	0.208000
C211	C21	0.719500	0.651200	0.092900
H201	H20	0.763100	0.618000	0.056700
H211	H21	0.720700	0.740000	0.090900
H221	H22	0.635400	0.622600	0.092300
C221	C22	0.780400	0.601900	0.271500
C231	C23	0.705100	0.633600	0.330800
H231	H23	0.745200	0.600100	0.367900
H241	H24	0.623700	0.598700	0.326900
H251	H25	0.698900	0.721900	0.334900
C241	C24	0.939500	0.495700	0.339200
H261	H26	0.906200	0.545900	0.373700
H271	H27	0.915800	0.410400	0.347100
O41	O4	0.119400	0.461300	0.144600
N101	N10	0.050200	0.710300	0.207800
C251	C25	0.116500	0.015100	0.167000
N111	N11	0.174400	0.025300	0.121700
N121	N12	0.114000	0.463500	0.278700
C261	C26	0.030200	0.806000	0.221000
C271	C27	0.218500	0.391200	0.153800
C281	C28	0.263300	0.356700	0.211600
H281	H28	0.351000	0.281000	0.208000
C291	C29	0.280500	0.348800	0.092900
H291	H29	0.236900	0.382000	0.056700
H301	H30	0.279300	0.260000	0.090900
H311	H31	0.364600	0.377400	0.092300
C301	C30	0.219600	0.398100	0.271500
C311	C31	0.294900	0.366400	0.330800
H321	H32	0.254800	0.399900	0.367900
H331	H33	0.376300	0.401300	0.326900
H341	H34	0.301100	0.278100	0.334900
C321	C32	0.060500	0.504300	0.339200
H351	H35	0.093800	0.454100	0.373700
H361	H36	0.084200	0.589600	0.347100
O51	O5	0.461300	0.880600	0.355400
N131	N13	0.710300	0.949800	0.292200
C331	C33	0.015100	0.883500	0.333000
N141	N14	0.025300	0.825600	0.378300
N151	N15	0.463500	0.886000	0.221300
C341	C34	0.806000	0.969800	0.279000
C351	C35	0.391200	0.781500	0.346200
C361	C36	0.356700	0.736700	0.288400
H371	H37	0.281000	0.649000	0.292000
C371	C37	0.348800	0.719500	0.407100
H381	H38	0.382000	0.763100	0.443300
H391	H39	0.260000	0.720700	0.409100
H401	H40	0.377400	0.635400	0.407700
C381	C38	0.398100	0.780400	0.228500
C391	C39	0.366400	0.705100	0.169200
H411	H41	0.399900	0.745200	0.132100
H421	H42	0.401300	0.623700	0.173100
H431	H43	0.278100	0.698900	0.165100
C401	C40	0.504300	0.939500	0.160800
H441	H44	0.454100	0.906200	0.126300
H451	H45	0.589600	0.915800	0.152900
O61	O6	0.538700	0.119400	0.355400
N161	N16	0.289700	0.050200	0.292200
C411	C41	0.984900	0.116500	0.333000
N171	N17	0.974700	0.174400	0.378300
N181	N18	0.536500	0.114000	0.221300
C421	C42	0.194000	0.030200	0.279000
C431	C43	0.608800	0.218500	0.346200
C441	C44	0.643300	0.263300	0.288400
H461	H46	0.719000	0.351000	0.292000
C451	C45	0.651200	0.280500	0.407100
H471	H47	0.618000	0.236900	0.443300
H481	H48	0.740000	0.279300	0.409100
H491	H49	0.622600	0.364600	0.407700
C461	C46	0.601900	0.219600	0.228500
C471	C47	0.633600	0.294900	0.169200
H501	H50	0.600100	0.254800	0.132100
H511	H51	0.598700	0.376300	0.173100
H521	H52	0.721900	0.301100	0.165100
C481	C48	0.495700	0.060500	0.160800
H531	H53	0.545900	0.093800	0.126300
H541	H54	0.410400	0.084200	0.152900
O71	O7	0.119400	0.461300	0.855400
N191	N19	0.050200	0.710300	0.792200
C491	C49	0.116500	0.015100	0.833000
N201	N20	0.174400	0.025300	0.878300
N211	N21	0.114000	0.463500	0.721300
C501	C50	0.030200	0.806000	0.779000
C511	C51	0.218500	0.391200	0.846200
C521	C52	0.263300	0.356700	0.788400
H551	H55	0.351000	0.281000	0.792000
C531	C53	0.280500	0.348800	0.907100
H561	H56	0.236900	0.382000	0.943300
H571	H57	0.279300	0.260000	0.909100
H581	H58	0.364600	0.377400	0.907700
C541	C54	0.219600	0.398100	0.728500
C551	C55	0.294900	0.366400	0.669200
H591	H59	0.254800	0.399900	0.632100
H601	H60	0.376300	0.401300	0.673100
H611	H61	0.301100	0.278100	0.665100
C561	C56	0.060500	0.504300	0.660800
H621	H62	0.093800	0.454100	0.626300
H631	H63	0.084200	0.589600	0.652900
O81	O8	0.880600	0.538700	0.855400
N221	N22	0.949800	0.289700	0.792200
C571	C57	0.883500	0.984900	0.833000
N231	N23	0.825600	0.974700	0.878300
N241	N24	0.886000	0.536500	0.721300
C581	C58	0.969800	0.194000	0.779000
C591	C59	0.781500	0.608800	0.846200
C601	C60	0.736700	0.643300	0.788400
H641	H64	0.649000	0.719000	0.792000
C611	C61	0.719500	0.651200	0.907100
H651	H65	0.763100	0.618000	0.943300
H661	H66	0.720700	0.740000	0.909100
H671	H67	0.635400	0.622600	0.907700
C621	C62	0.780400	0.601900	0.728500
C631	C63	0.705100	0.633600	0.669200
H681	H68	0.745200	0.600100	0.632100
H691	H69	0.623700	0.598700	0.673100
H701	H70	0.698900	0.721900	0.665100
C641	C64	0.939500	0.495700	0.660800
H711	H71	0.906200	0.545900	0.626300
H721	H72	0.915800	0.410400	0.652900
W11	W1	0.000000	0.000000	0.750000
W21	W2	0.000000	0.000000	0.250000
Mn11	Mn1	0.500000	0.000000	0.706680
Mn21	Mn2	0.000000	0.500000	0.206680
Mn31	Mn3	0.500000	0.000000	0.293320
Mn41	Mn4	0.000000	0.500000	0.793320
O91	O9	0.835000	0.525000	0.500000
K11	K1	0.970300	0.299300	0.500000
O101	O10	0.165000	0.475000	0.500000
K21	K2	0.029700	0.700700	0.500000
O111	O11	0.475000	0.835000	0.000000
K31	K3	0.700700	0.970300	0.000000
O121	O12	0.525000	0.165000	0.000000
K41	K4	0.299300	0.029700	0.000000
