data_WAJHOG_clean_PM
_symmetry_space_group_name_H-M	'P1'
_cell_length_a	10.783300
_cell_length_b	16.633200
_cell_length_c	16.633200
_cell_angle_alpha	90.000000
_cell_angle_beta	90.000000
_cell_angle_gamma	90.000000
_symmetry_Int_Tables_number 1

loop_
_symmetry_equiv_pos_as_xyz
'x,y,z'

loop_
_atom_site_label
_atom_site_type_symbol
_atom_site_fract_x
_atom_site_fract_y
_atom_site_fract_z
Li11	Li1	0.060700	0.744200	0.432400
Li21	Li2	0.560700	0.255800	0.567600
Li31	Li3	0.810700	0.067600	0.244200
Li41	Li4	0.310700	0.932400	0.755800
Li51	Li5	0.689300	0.755800	0.932400
Li61	Li6	0.189300	0.244200	0.067600
Li71	Li7	0.939300	0.432400	0.744200
Li81	Li8	0.439300	0.567600	0.255800
Zn11	Zn1	0.149590	0.847900	0.585200
Zn21	Zn2	0.649590	0.152100	0.414800
Zn31	Zn3	0.899590	0.914800	0.347900
Zn41	Zn4	0.399590	0.085200	0.652100
Zn51	Zn5	0.600410	0.652100	0.085200
Zn61	Zn6	0.100410	0.347900	0.914800
Zn71	Zn7	0.850410	0.585200	0.847900
Zn81	Zn8	0.350410	0.414800	0.152100
H11	H1	0.902200	0.749900	0.634100
H21	H2	0.626500	0.831200	0.772100
H31	H3	0.707200	0.944800	0.567100
H41	H4	0.402200	0.250100	0.365900
H51	H5	0.126500	0.168800	0.227900
H61	H6	0.207200	0.055200	0.432900
H71	H7	0.652200	0.865900	0.249900
H81	H8	0.376500	0.727900	0.331200
H91	H9	0.457200	0.932900	0.444800
H101	H10	0.152200	0.134100	0.750100
H111	H11	0.876500	0.272100	0.668800
H121	H12	0.957200	0.067100	0.555200
H131	H13	0.847800	0.750100	0.134100
H141	H14	0.123500	0.668800	0.272100
H151	H15	0.042800	0.555200	0.067100
H161	H16	0.347800	0.249900	0.865900
H171	H17	0.623500	0.331200	0.727900
H181	H18	0.542800	0.444800	0.932900
H191	H19	0.097800	0.634100	0.749900
H201	H20	0.373500	0.772100	0.831200
H211	H21	0.292800	0.567100	0.944800
H221	H22	0.597800	0.365900	0.250100
H231	H23	0.873500	0.227900	0.168800
H241	H24	0.792800	0.432900	0.055200
C11	C1	0.892000	0.855200	0.513600
C21	C2	0.787700	0.712100	0.769000
C31	C3	0.550500	0.956000	0.690000
C41	C4	0.819100	0.849200	0.589100
C51	C5	0.839600	0.787000	0.643800
C61	C6	0.766800	0.780000	0.713000
C71	C7	0.675100	0.835800	0.726200
C81	C8	0.652900	0.897700	0.674100
C91	C9	0.723700	0.904100	0.603900
C101	C10	0.392000	0.144800	0.486400
C111	C11	0.287700	0.287900	0.231000
C121	C12	0.050500	0.044000	0.310000
C131	C13	0.319100	0.150800	0.410900
C141	C14	0.339600	0.213000	0.356200
C151	C15	0.266800	0.220000	0.287000
C161	C16	0.175100	0.164200	0.273800
C171	C17	0.152900	0.102300	0.325900
C181	C18	0.223700	0.095900	0.396100
C191	C19	0.642000	0.986400	0.355200
C201	C20	0.537700	0.731000	0.212100
C211	C21	0.300500	0.810000	0.456000
C221	C22	0.569100	0.910900	0.349200
C231	C23	0.589600	0.856200	0.287000
C241	C24	0.516800	0.787000	0.280000
C251	C25	0.425100	0.773800	0.335800
C261	C26	0.402900	0.825900	0.397700
C271	C27	0.473700	0.896100	0.404100
C281	C28	0.142000	0.013600	0.644800
C291	C29	0.037700	0.269000	0.787900
C301	C30	0.800500	0.190000	0.544000
C311	C31	0.069100	0.089100	0.650800
C321	C32	0.089600	0.143800	0.713000
C331	C33	0.016800	0.213000	0.720000
C341	C34	0.925100	0.226200	0.664200
C351	C35	0.902900	0.174100	0.602300
C361	C36	0.973700	0.103900	0.595900
C371	C37	0.858000	0.644800	0.013600
C381	C38	0.962300	0.787900	0.269000
C391	C39	0.199500	0.544000	0.190000
C401	C40	0.930900	0.650800	0.089100
C411	C41	0.910400	0.713000	0.143800
C421	C42	0.983200	0.720000	0.213000
C431	C43	0.074900	0.664200	0.226200
C441	C44	0.097100	0.602300	0.174100
C451	C45	0.026300	0.595900	0.103900
C461	C46	0.358000	0.355200	0.986400
C471	C47	0.462300	0.212100	0.731000
C481	C48	0.699500	0.456000	0.810000
C491	C49	0.430900	0.349200	0.910900
C501	C50	0.410400	0.287000	0.856200
C511	C51	0.483200	0.280000	0.787000
C521	C52	0.574900	0.335800	0.773800
C531	C53	0.597100	0.397700	0.825900
C541	C54	0.526300	0.404100	0.896100
C551	C55	0.108000	0.513600	0.855200
C561	C56	0.212300	0.769000	0.712100
C571	C57	0.449500	0.690000	0.956000
C581	C58	0.180900	0.589100	0.849200
C591	C59	0.160400	0.643800	0.787000
C601	C60	0.233200	0.713000	0.780000
C611	C61	0.324900	0.726200	0.835800
C621	C62	0.347100	0.674100	0.897700
C631	C63	0.276300	0.603900	0.904100
C641	C64	0.608000	0.486400	0.144800
C651	C65	0.712300	0.231000	0.287900
C661	C66	0.949500	0.310000	0.044000
C671	C67	0.680900	0.410900	0.150800
C681	C68	0.660400	0.356200	0.213000
C691	C69	0.733200	0.287000	0.220000
C701	C70	0.824900	0.273800	0.164200
C711	C71	0.847100	0.325900	0.102300
C721	C72	0.776300	0.396100	0.095900
O11	O1	0.999800	0.825700	0.511020
O21	O2	0.838100	0.886100	0.454100
O31	O3	0.859900	0.654600	0.750000
O41	O4	0.733100	0.710000	0.834200
O51	O5	0.485900	0.948500	0.751800
O61	O6	0.536000	0.011700	0.636900
O71	O7	0.499800	0.174300	0.488980
O81	O8	0.338100	0.113900	0.545900
O91	O9	0.359900	0.345400	0.250000
O101	O10	0.233100	0.290000	0.165800
O111	O11	0.985900	0.051500	0.248200
O121	O12	0.036000	0.988300	0.363100
O131	O13	0.749800	0.988980	0.325700
O141	O14	0.588100	0.045900	0.386100
O151	O15	0.609900	0.750000	0.154600
O161	O16	0.483100	0.665800	0.210000
O171	O17	0.235900	0.748200	0.448500
O181	O18	0.286000	0.863100	0.511700
O191	O19	0.249800	0.011020	0.674300
O201	O20	0.088100	0.954100	0.613900
O211	O21	0.109900	0.250000	0.845400
O221	O22	0.983100	0.334200	0.790000
O231	O23	0.735900	0.251800	0.551500
O241	O24	0.786000	0.136900	0.488300
O251	O25	0.750200	0.674300	0.011020
O261	O26	0.911900	0.613900	0.954100
O271	O27	0.890100	0.845400	0.250000
O281	O28	0.016900	0.790000	0.334200
O291	O29	0.264100	0.551500	0.251800
O301	O30	0.214000	0.488300	0.136900
O311	O31	0.250200	0.325700	0.988980
O321	O32	0.411900	0.386100	0.045900
O331	O33	0.390100	0.154600	0.750000
O341	O34	0.516900	0.210000	0.665800
O351	O35	0.764100	0.448500	0.748200
O361	O36	0.714000	0.511700	0.863100
O371	O37	0.000200	0.511020	0.825700
O381	O38	0.161900	0.454100	0.886100
O391	O39	0.140100	0.750000	0.654600
O401	O40	0.266900	0.834200	0.710000
O411	O41	0.514100	0.751800	0.948500
O421	O42	0.464000	0.636900	0.011700
O431	O43	0.500200	0.488980	0.174300
O441	O44	0.661900	0.545900	0.113900
O451	O45	0.640100	0.250000	0.345400
O461	O46	0.766900	0.165800	0.290000
O471	O47	0.014100	0.248200	0.051500
O481	O48	0.964000	0.363100	0.988300
