data_WAKSOT_clean_PM
_symmetry_space_group_name_H-M	'P1'
_cell_length_a	10.192000
_cell_length_b	11.611000
_cell_length_c	16.848000
_cell_angle_alpha	110.040000
_cell_angle_beta	97.660000
_cell_angle_gamma	92.040000
_symmetry_Int_Tables_number 1

loop_
_symmetry_equiv_pos_as_xyz
'x,y,z'

loop_
_atom_site_label
_atom_site_type_symbol
_atom_site_fract_x
_atom_site_fract_y
_atom_site_fract_z
Cd11	Cd1	0.477900	0.527500	0.868840
Cd21	Cd2	0.554350	0.969010	0.254200
Cd31	Cd3	0.447900	0.432260	0.589610
C11	C1	0.810000	0.448300	0.720500
C21	C2	0.835000	0.360700	0.645000
H11	H1	0.763400	0.305300	0.611700
C31	C3	0.951000	0.348500	0.615500
H21	H2	0.960500	0.285600	0.565100
C41	C4	0.066000	0.439500	0.666600
C51	C5	0.046000	0.531100	0.740200
H31	H3	0.115300	0.590200	0.772200
C61	C6	0.924000	0.535000	0.766200
H41	H4	0.913700	0.597400	0.816600
C71	C7	0.680000	0.455000	0.750900
C81	C8	0.197000	0.428000	0.641400
C91	C9	0.113000	0.335600	0.863900
C101	C10	0.049000	0.353000	0.935000
H51	H5	0.082200	0.414500	0.986700
C111	C11	0.939000	0.280300	0.928800
H61	H6	0.903000	0.291300	0.978500
C121	C12	0.877000	0.192800	0.856200
C131	C13	0.946000	0.180700	0.780800
H71	H7	0.907200	0.125800	0.727500
C141	C14	0.061000	0.244800	0.786100
H81	H8	0.105100	0.228900	0.739000
C151	C15	0.245000	0.412400	0.866100
C161	C16	0.758000	0.124000	0.848100
C171	C17	0.980500	0.156100	0.295000
C181	C18	0.086900	0.144400	0.249900
H91	H9	0.081100	0.083900	0.196100
C191	C19	0.202100	0.223200	0.285200
H101	H10	0.273300	0.215400	0.255000
C201	C20	0.210800	0.313700	0.365600
C211	C21	0.104300	0.325400	0.410700
H111	H11	0.110200	0.385900	0.464500
C221	C22	0.989200	0.246600	0.375400
H121	H12	0.918000	0.254400	0.405600
C231	C23	0.833000	0.078300	0.253500
C241	C24	0.330000	0.406900	0.400700
C251	C25	0.652000	0.778300	0.997500
C261	C26	0.510000	0.719300	0.070300
C271	C27	0.549000	0.201100	0.436300
C281	C28	0.398000	0.053400	0.425900
O11	O1	0.678000	0.532000	0.825200
O21	O2	0.579000	0.385400	0.705800
O31	O3	0.281000	0.524700	0.660100
O41	O4	0.227000	0.323900	0.595600
O51	O5	0.283000	0.501900	0.932600
O61	O6	0.301000	0.386700	0.801700
O71	O7	0.658800	0.113200	0.779700
O81	O8	0.744000	0.077500	0.901400
O91	O9	0.771000	0.061600	0.299100
O101	O10	0.836000	0.043000	0.170200
O111	O11	0.414000	0.395300	0.353200
O121	O12	0.341800	0.481500	0.473000
N11	N1	0.583000	0.822900	0.122800
N21	N2	0.666000	0.856400	0.073600
H131	H13	0.720000	0.921900	0.092200
N31	N3	0.559000	0.686100	0.989500
N41	N4	0.718000	0.783400	0.934900
H141	H14	0.776900	0.843700	0.944300
H151	H15	0.702500	0.726300	0.885300
N51	N5	0.429000	0.648100	0.089600
H161	H16	0.417000	0.664900	0.141800
H171	H17	0.387100	0.584000	0.050200
N61	N6	0.478000	0.245700	0.503000
N71	N7	0.388000	0.146400	0.491100
H181	H18	0.331200	0.147800	0.524800
N81	N8	0.500000	0.081800	0.385500
N91	N9	0.651000	0.260500	0.423000
H191	H19	0.679200	0.333500	0.457600
H201	H20	0.690300	0.226200	0.379600
N101	N10	0.328000	0.946400	0.403000
H211	H21	0.270500	0.935500	0.433300
H221	H22	0.340200	0.887300	0.357800
Cd41	Cd4	0.522100	0.472500	0.131160
Cd51	Cd5	0.445650	0.030990	0.745800
Cd61	Cd6	0.552100	0.567740	0.410390
C291	C29	0.190000	0.551700	0.279500
C301	C30	0.165000	0.639300	0.355000
H231	H23	0.236600	0.694700	0.388300
C311	C31	0.049000	0.651500	0.384500
H241	H24	0.039500	0.714400	0.434900
C321	C32	0.934000	0.560500	0.333400
C331	C33	0.954000	0.468900	0.259800
H251	H25	0.884700	0.409800	0.227800
C341	C34	0.076000	0.465000	0.233800
H261	H26	0.086300	0.402600	0.183400
C351	C35	0.320000	0.545000	0.249100
C361	C36	0.803000	0.572000	0.358600
C371	C37	0.887000	0.664400	0.136100
C381	C38	0.951000	0.647000	0.065000
H271	H27	0.917800	0.585500	0.013300
C391	C39	0.061000	0.719700	0.071200
H281	H28	0.097000	0.708700	0.021500
C401	C40	0.123000	0.807200	0.143800
C411	C41	0.054000	0.819300	0.219200
H291	H29	0.092800	0.874200	0.272500
C421	C42	0.939000	0.755200	0.213900
H301	H30	0.894900	0.771100	0.261000
C431	C43	0.755000	0.587600	0.133900
C441	C44	0.242000	0.876000	0.151900
C451	C45	0.019500	0.843900	0.705000
C461	C46	0.913100	0.855600	0.750100
H311	H31	0.918900	0.916100	0.803900
C471	C47	0.797900	0.776800	0.714800
H321	H32	0.726700	0.784600	0.745000
C481	C48	0.789200	0.686300	0.634400
C491	C49	0.895700	0.674600	0.589300
H331	H33	0.889800	0.614100	0.535500
C501	C50	0.010800	0.753400	0.624600
H341	H34	0.082000	0.745600	0.594400
C511	C51	0.167000	0.921700	0.746500
C521	C52	0.670000	0.593100	0.599300
C531	C53	0.348000	0.221700	0.002500
C541	C54	0.490000	0.280700	0.929700
C551	C55	0.451000	0.798900	0.563700
C561	C56	0.602000	0.946600	0.574100
O131	O13	0.322000	0.468000	0.174800
O141	O14	0.421000	0.614600	0.294200
O151	O15	0.719000	0.475300	0.339900
O161	O16	0.773000	0.676100	0.404400
O171	O17	0.717000	0.498100	0.067400
O181	O18	0.699000	0.613300	0.198300
O191	O19	0.341200	0.886800	0.220300
O201	O20	0.256000	0.922500	0.098600
O211	O21	0.229000	0.938400	0.700900
O221	O22	0.164000	0.957000	0.829800
O231	O23	0.586000	0.604700	0.646800
O241	O24	0.658200	0.518500	0.527000
N111	N11	0.417000	0.177100	0.877200
N121	N12	0.334000	0.143600	0.926400
H351	H35	0.280000	0.078100	0.907800
N131	N13	0.441000	0.313900	0.010500
N141	N14	0.282000	0.216600	0.065100
H361	H36	0.223100	0.156300	0.055700
H371	H37	0.297500	0.273700	0.114700
N151	N15	0.571000	0.351900	0.910400
H381	H38	0.583000	0.335100	0.858200
H391	H39	0.612900	0.416000	0.949800
N161	N16	0.522000	0.754300	0.497000
N171	N17	0.612000	0.853600	0.508900
H401	H40	0.668800	0.852200	0.475200
N181	N18	0.500000	0.918200	0.614500
N191	N19	0.349000	0.739500	0.577000
H411	H41	0.320800	0.666500	0.542400
H421	H42	0.309700	0.773800	0.620400
N201	N20	0.672000	0.053600	0.597000
H431	H43	0.729500	0.064500	0.566700
H441	H44	0.659800	0.112700	0.642200
