data_WALBOC01_clean_PM
_symmetry_space_group_name_H-M	'P1'
_cell_length_a	12.963900
_cell_length_b	13.803400
_cell_length_c	16.831800
_cell_angle_alpha	90.000000
_cell_angle_beta	90.000000
_cell_angle_gamma	90.000000
_symmetry_Int_Tables_number 1

loop_
_symmetry_equiv_pos_as_xyz
'x,y,z'

loop_
_atom_site_label
_atom_site_type_symbol
_atom_site_fract_x
_atom_site_fract_y
_atom_site_fract_z
Zn11	Zn1	0.976140	0.407410	0.576030
Zn21	Zn2	0.926410	0.478010	0.903850
Zn31	Zn3	0.023860	0.092590	0.076030
Zn41	Zn4	0.073590	0.021990	0.403850
Zn51	Zn5	0.476140	0.592590	0.923970
Zn61	Zn6	0.426410	0.521990	0.596150
Zn71	Zn7	0.523860	0.907410	0.423970
Zn81	Zn8	0.573590	0.978010	0.096150
Zn91	Zn9	0.023860	0.592590	0.423970
Zn101	Zn10	0.073590	0.521990	0.096150
Zn111	Zn11	0.976140	0.907410	0.923970
Zn121	Zn12	0.926410	0.978010	0.596150
Zn131	Zn13	0.523860	0.407410	0.076030
Zn141	Zn14	0.573590	0.478010	0.403850
Zn151	Zn15	0.476140	0.092590	0.576030
Zn161	Zn16	0.426410	0.021990	0.903850
H11	H1	0.950000	0.192000	0.644600
H21	H2	0.751000	0.354000	0.503400
H31	H3	0.061000	0.243000	0.369000
H41	H4	0.058000	0.330000	0.410500
H51	H5	0.726000	0.618000	0.324000
H61	H6	0.838000	0.660000	0.346000
H71	H7	0.050000	0.308000	0.144600
H81	H8	0.249000	0.146000	0.003400
H91	H9	0.939000	0.257000	0.869000
H101	H10	0.942000	0.170000	0.910500
H111	H11	0.274000	0.882000	0.824000
H121	H12	0.162000	0.840000	0.846000
H131	H13	0.450000	0.808000	0.855400
H141	H14	0.251000	0.646000	0.996600
H151	H15	0.561000	0.757000	0.131000
H161	H16	0.558000	0.670000	0.089500
H171	H17	0.226000	0.382000	0.176000
H181	H18	0.338000	0.340000	0.154000
H191	H19	0.550000	0.692000	0.355400
H201	H20	0.749000	0.854000	0.496600
H211	H21	0.439000	0.743000	0.631000
H221	H22	0.442000	0.830000	0.589500
H231	H23	0.774000	0.118000	0.676000
H241	H24	0.662000	0.160000	0.654000
H251	H25	0.050000	0.808000	0.355400
H261	H26	0.249000	0.646000	0.496600
H271	H27	0.939000	0.757000	0.631000
H281	H28	0.942000	0.670000	0.589500
H291	H29	0.274000	0.382000	0.676000
H301	H30	0.162000	0.340000	0.654000
H311	H31	0.950000	0.692000	0.855400
H321	H32	0.751000	0.854000	0.996600
H331	H33	0.061000	0.743000	0.131000
H341	H34	0.058000	0.830000	0.089500
H351	H35	0.726000	0.118000	0.176000
H361	H36	0.838000	0.160000	0.154000
H371	H37	0.550000	0.192000	0.144600
H381	H38	0.749000	0.354000	0.003400
H391	H39	0.439000	0.243000	0.869000
H401	H40	0.442000	0.330000	0.910500
H411	H41	0.774000	0.618000	0.824000
H421	H42	0.662000	0.660000	0.846000
H431	H43	0.450000	0.308000	0.644600
H441	H44	0.251000	0.146000	0.503400
H451	H45	0.561000	0.257000	0.369000
H461	H46	0.558000	0.170000	0.410500
H471	H47	0.226000	0.882000	0.324000
H481	H48	0.338000	0.840000	0.346000
C11	C1	0.972200	0.409720	0.746060
C21	C2	0.922700	0.506990	0.722520
C31	C3	0.027900	0.220360	0.479930
C41	C4	0.971100	0.188200	0.594130
C51	C5	0.797900	0.547910	0.410630
C61	C6	0.777900	0.418950	0.476970
C71	C7	0.027800	0.090280	0.246060
C81	C8	0.077300	0.993010	0.222520
C91	C9	0.972100	0.279640	0.979930
C101	C10	0.028900	0.311800	0.094130
C111	C11	0.202100	0.952090	0.910630
C121	C12	0.222100	0.081050	0.976970
C131	C13	0.472200	0.590280	0.753940
C141	C14	0.422700	0.493010	0.777480
C151	C15	0.527900	0.779640	0.020070
C161	C16	0.471100	0.811800	0.905870
C171	C17	0.297900	0.452090	0.089370
C181	C18	0.277900	0.581050	0.023030
C191	C19	0.527800	0.909720	0.253940
C201	C20	0.577300	0.006990	0.277480
C211	C21	0.472100	0.720360	0.520070
C221	C22	0.528900	0.688200	0.405870
C231	C23	0.702100	0.047910	0.589370
C241	C24	0.722100	0.918950	0.523030
C251	C25	0.027800	0.590280	0.253940
C261	C26	0.077300	0.493010	0.277480
C271	C27	0.972100	0.779640	0.520070
C281	C28	0.028900	0.811800	0.405870
C291	C29	0.202100	0.452090	0.589370
C301	C30	0.222100	0.581050	0.523030
C311	C31	0.972200	0.909720	0.753940
C321	C32	0.922700	0.006990	0.777480
C331	C33	0.027900	0.720360	0.020070
C341	C34	0.971100	0.688200	0.905870
C351	C35	0.797900	0.047910	0.089370
C361	C36	0.777900	0.918950	0.023030
C371	C37	0.527800	0.409720	0.246060
C381	C38	0.577300	0.506990	0.222520
C391	C39	0.472100	0.220360	0.979930
C401	C40	0.528900	0.188200	0.094130
C411	C41	0.702100	0.547910	0.910630
C421	C42	0.722100	0.418950	0.976970
C431	C43	0.472200	0.090280	0.746060
C441	C44	0.422700	0.993010	0.722520
C451	C45	0.527900	0.279640	0.479930
C461	C46	0.471100	0.311800	0.594130
C471	C47	0.297900	0.952090	0.410630
C481	C48	0.277900	0.081050	0.476970
N11	N1	0.995020	0.263410	0.547150
N21	N2	0.987060	0.104050	0.560520
N31	N3	0.024960	0.123950	0.485030
N41	N4	0.066500	0.269110	0.416640
N51	N5	0.872910	0.446630	0.490930
N61	N6	0.886790	0.531650	0.447740
N71	N7	0.726580	0.478590	0.427130
N81	N8	0.779000	0.626600	0.364400
N91	N9	0.004980	0.236590	0.047150
N101	N10	0.012940	0.395950	0.060520
N111	N11	0.975040	0.376050	0.985030
N121	N12	0.933500	0.230890	0.916640
N131	N13	0.127090	0.053370	0.990930
N141	N14	0.113210	0.968350	0.947740
N151	N15	0.273420	0.021410	0.927130
N161	N16	0.221000	0.873400	0.864400
N171	N17	0.495020	0.736590	0.952850
N181	N18	0.487060	0.895950	0.939480
N191	N19	0.524960	0.876050	0.014970
N201	N20	0.566500	0.730890	0.083360
N211	N21	0.372910	0.553370	0.009070
N221	N22	0.386790	0.468350	0.052260
N231	N23	0.226580	0.521410	0.072870
N241	N24	0.279000	0.373400	0.135600
N251	N25	0.504980	0.763410	0.452850
N261	N26	0.512940	0.604050	0.439480
N271	N27	0.475040	0.623950	0.514970
N281	N28	0.433500	0.769110	0.583360
N291	N29	0.627090	0.946630	0.509070
N301	N30	0.613210	0.031650	0.552260
N311	N31	0.773420	0.978590	0.572870
N321	N32	0.721000	0.126600	0.635600
N331	N33	0.004980	0.736590	0.452850
N341	N34	0.012940	0.895950	0.439480
N351	N35	0.975040	0.876050	0.514970
N361	N36	0.933500	0.730890	0.583360
N371	N37	0.127090	0.553370	0.509070
N381	N38	0.113210	0.468350	0.552260
N391	N39	0.273420	0.521410	0.572870
N401	N40	0.221000	0.373400	0.635600
N411	N41	0.995020	0.763410	0.952850
N421	N42	0.987060	0.604050	0.939480
N431	N43	0.024960	0.623950	0.014970
N441	N44	0.066500	0.769110	0.083360
N451	N45	0.872910	0.946630	0.009070
N461	N46	0.886790	0.031650	0.052260
N471	N47	0.726580	0.978590	0.072870
N481	N48	0.779000	0.126600	0.135600
N491	N49	0.504980	0.263410	0.047150
N501	N50	0.512940	0.104050	0.060520
N511	N51	0.475040	0.123950	0.985030
N521	N52	0.433500	0.269110	0.916640
N531	N53	0.627090	0.446630	0.990930
N541	N54	0.613210	0.531650	0.947740
N551	N55	0.773420	0.478590	0.927130
N561	N56	0.721000	0.626600	0.864400
N571	N57	0.495020	0.236590	0.547150
N581	N58	0.487060	0.395950	0.560520
N591	N59	0.524960	0.376050	0.485030
N601	N60	0.566500	0.230890	0.416640
N611	N61	0.372910	0.053370	0.490930
N621	N62	0.386790	0.968350	0.447740
N631	N63	0.226580	0.021410	0.427130
N641	N64	0.279000	0.873400	0.364400
O11	O1	0.000690	0.355180	0.691340
O21	O2	0.916060	0.523120	0.649590
O31	O3	0.894250	0.559020	0.778680
O41	O4	0.982480	0.391390	0.818470
O51	O5	0.999310	0.144820	0.191340
O61	O6	0.083940	0.976880	0.149590
O71	O7	0.105750	0.940980	0.278680
O81	O8	0.017520	0.108610	0.318470
O91	O9	0.500690	0.644820	0.808660
O101	O10	0.416060	0.476880	0.850410
O111	O11	0.394250	0.440980	0.721320
O121	O12	0.482480	0.608610	0.681530
O131	O13	0.499310	0.855180	0.308660
O141	O14	0.583940	0.023120	0.350410
O151	O15	0.605750	0.059020	0.221320
O161	O16	0.517520	0.891390	0.181530
O171	O17	0.999310	0.644820	0.308660
O181	O18	0.083940	0.476880	0.350410
O191	O19	0.105750	0.440980	0.221320
O201	O20	0.017520	0.608610	0.181530
O211	O21	0.000690	0.855180	0.808660
O221	O22	0.916060	0.023120	0.850410
O231	O23	0.894250	0.059020	0.721320
O241	O24	0.982480	0.891390	0.681530
O251	O25	0.499310	0.355180	0.191340
O261	O26	0.583940	0.523120	0.149590
O271	O27	0.605750	0.559020	0.278680
O281	O28	0.517520	0.391390	0.318470
O291	O29	0.500690	0.144820	0.691340
O301	O30	0.416060	0.976880	0.649590
O311	O31	0.394250	0.940980	0.778680
O321	O32	0.482480	0.108610	0.818470
