data_WALBOC02_clean_PM
_symmetry_space_group_name_H-M	'P1'
_cell_length_a	12.959100
_cell_length_b	13.797100
_cell_length_c	16.815300
_cell_angle_alpha	90.000000
_cell_angle_beta	90.000000
_cell_angle_gamma	90.000000
_symmetry_Int_Tables_number 1

loop_
_symmetry_equiv_pos_as_xyz
'x,y,z'

loop_
_atom_site_label
_atom_site_type_symbol
_atom_site_fract_x
_atom_site_fract_y
_atom_site_fract_z
Zn11	Zn1	0.426650	0.977540	0.403920
Zn21	Zn2	0.476600	0.907140	0.076100
Zn31	Zn3	0.573350	0.522460	0.903920
Zn41	Zn4	0.523400	0.592860	0.576100
Zn51	Zn5	0.926650	0.022460	0.096080
Zn61	Zn6	0.976600	0.092860	0.423900
Zn71	Zn7	0.073350	0.477540	0.596080
Zn81	Zn8	0.023400	0.407140	0.923900
Zn91	Zn9	0.573350	0.022460	0.596080
Zn101	Zn10	0.523400	0.092860	0.923900
Zn111	Zn11	0.426650	0.477540	0.096080
Zn121	Zn12	0.476600	0.407140	0.423900
Zn131	Zn13	0.073350	0.977540	0.903920
Zn141	Zn14	0.023400	0.907140	0.576100
Zn151	Zn15	0.926650	0.522460	0.403920
Zn161	Zn16	0.976600	0.592860	0.076100
H11	H1	0.251800	0.863400	0.501600
H21	H2	0.446600	0.195000	0.352900
H31	H3	0.172500	0.169300	0.356300
H41	H4	0.281700	0.132500	0.341000
H51	H5	0.587100	0.237800	0.625300
H61	H6	0.564200	0.333400	0.583500
H71	H7	0.748200	0.636600	0.001600
H81	H8	0.553400	0.305000	0.852900
H91	H9	0.827500	0.330700	0.856300
H101	H10	0.718300	0.367500	0.841000
H111	H11	0.412900	0.262200	0.125300
H121	H12	0.435800	0.166600	0.083500
H131	H13	0.751800	0.136600	0.998400
H141	H14	0.946600	0.805000	0.147100
H151	H15	0.672500	0.830700	0.143700
H161	H16	0.781700	0.867500	0.159000
H171	H17	0.087100	0.762200	0.874700
H181	H18	0.064200	0.666600	0.916500
H191	H19	0.248200	0.363400	0.498400
H201	H20	0.053400	0.695000	0.647100
H211	H21	0.327500	0.669300	0.643700
H221	H22	0.218300	0.632500	0.659000
H231	H23	0.912900	0.737800	0.374700
H241	H24	0.935800	0.833400	0.416500
H251	H25	0.748200	0.136600	0.498400
H261	H26	0.553400	0.805000	0.647100
H271	H27	0.827500	0.830700	0.643700
H281	H28	0.718300	0.867500	0.659000
H291	H29	0.412900	0.762200	0.374700
H301	H30	0.435800	0.666600	0.416500
H311	H31	0.251800	0.363400	0.998400
H321	H32	0.446600	0.695000	0.147100
H331	H33	0.172500	0.669300	0.143700
H341	H34	0.281700	0.632500	0.159000
H351	H35	0.587100	0.737800	0.874700
H361	H36	0.564200	0.833400	0.916500
H371	H37	0.248200	0.863400	0.001600
H381	H38	0.053400	0.195000	0.852900
H391	H39	0.327500	0.169300	0.856300
H401	H40	0.218300	0.132500	0.841000
H411	H41	0.912900	0.237800	0.125300
H421	H42	0.935800	0.333400	0.083500
H431	H43	0.751800	0.636600	0.501600
H441	H44	0.946600	0.305000	0.352900
H451	H45	0.672500	0.330700	0.356300
H461	H46	0.781700	0.367500	0.341000
H471	H47	0.087100	0.262200	0.625300
H481	H48	0.064200	0.166600	0.583500
C11	C1	0.423500	0.006000	0.223050
C21	C2	0.472400	0.909100	0.246420
C31	C3	0.202300	0.047500	0.410990
C41	C4	0.222100	0.919500	0.478180
C51	C5	0.526900	0.220400	0.519920
C61	C6	0.471600	0.188000	0.405690
C71	C7	0.576500	0.494000	0.723050
C81	C8	0.527600	0.590900	0.746420
C91	C9	0.797700	0.452500	0.910990
C101	C10	0.777900	0.580500	0.978180
C111	C11	0.473100	0.279600	0.019920
C121	C12	0.528400	0.312000	0.905690
C131	C13	0.923500	0.994000	0.276950
C141	C14	0.972400	0.090900	0.253580
C151	C15	0.702300	0.952500	0.089010
C161	C16	0.722100	0.080500	0.021820
C171	C17	0.026900	0.779600	0.980080
C181	C18	0.971600	0.812000	0.094310
C191	C19	0.076500	0.506000	0.776950
C201	C20	0.027600	0.409100	0.753580
C211	C21	0.297700	0.547500	0.589010
C221	C22	0.277900	0.419500	0.521820
C231	C23	0.973100	0.720400	0.480080
C241	C24	0.028400	0.688000	0.594310
C251	C25	0.576500	0.994000	0.776950
C261	C26	0.527600	0.090900	0.753580
C271	C27	0.797700	0.952500	0.589010
C281	C28	0.777900	0.080500	0.521820
C291	C29	0.473100	0.779600	0.480080
C301	C30	0.528400	0.812000	0.594310
C311	C31	0.423500	0.506000	0.276950
C321	C32	0.472400	0.409100	0.253580
C331	C33	0.202300	0.547500	0.089010
C341	C34	0.222100	0.419500	0.021820
C351	C35	0.526900	0.720400	0.980080
C361	C36	0.471600	0.688000	0.094310
C371	C37	0.076500	0.006000	0.723050
C381	C38	0.027600	0.909100	0.746420
C391	C39	0.297700	0.047500	0.910990
C401	C40	0.277900	0.919500	0.978180
C411	C41	0.973100	0.220400	0.019920
C421	C42	0.028400	0.188000	0.905690
C431	C43	0.923500	0.494000	0.223050
C441	C44	0.972400	0.590900	0.246420
C451	C45	0.702300	0.452500	0.410990
C461	C46	0.722100	0.580500	0.478180
C471	C47	0.026900	0.279600	0.519920
C481	C48	0.971600	0.312000	0.405690
N11	N1	0.273700	0.978530	0.428000
N21	N2	0.127100	0.947170	0.491400
N31	N3	0.113600	0.031400	0.447640
N41	N4	0.221000	0.125600	0.363900
N51	N5	0.523300	0.123990	0.515370
N61	N6	0.486700	0.104080	0.439600
N71	N7	0.494800	0.263180	0.452760
N81	N8	0.563700	0.269600	0.583710
N91	N9	0.726300	0.521470	0.928000
N101	N10	0.872900	0.552830	0.991400
N111	N11	0.886400	0.468600	0.947640
N121	N12	0.779000	0.374400	0.863900
N131	N13	0.476700	0.376010	0.015370
N141	N14	0.513300	0.395920	0.939600
N151	N15	0.505200	0.236820	0.952760
N161	N16	0.436300	0.230400	0.083710
N171	N17	0.773700	0.021470	0.072000
N181	N18	0.627100	0.052830	0.008600
N191	N19	0.613600	0.968600	0.052360
N201	N20	0.721000	0.874400	0.136100
N211	N21	0.023300	0.876010	0.984630
N221	N22	0.986700	0.895920	0.060400
N231	N23	0.994800	0.736820	0.047240
N241	N24	0.063700	0.730400	0.916290
N251	N25	0.226300	0.478530	0.572000
N261	N26	0.372900	0.447170	0.508600
N271	N27	0.386400	0.531400	0.552360
N281	N28	0.279000	0.625600	0.636100
N291	N29	0.976700	0.623990	0.484630
N301	N30	0.013300	0.604080	0.560400
N311	N31	0.005200	0.763180	0.547240
N321	N32	0.936300	0.769600	0.416290
N331	N33	0.726300	0.021470	0.572000
N341	N34	0.872900	0.052830	0.508600
N351	N35	0.886400	0.968600	0.552360
N361	N36	0.779000	0.874400	0.636100
N371	N37	0.476700	0.876010	0.484630
N381	N38	0.513300	0.895920	0.560400
N391	N39	0.505200	0.736820	0.547240
N401	N40	0.436300	0.730400	0.416290
N411	N41	0.273700	0.478530	0.072000
N421	N42	0.127100	0.447170	0.008600
N431	N43	0.113600	0.531400	0.052360
N441	N44	0.221000	0.625600	0.136100
N451	N45	0.523300	0.623990	0.984630
N461	N46	0.486700	0.604080	0.060400
N471	N47	0.494800	0.763180	0.047240
N481	N48	0.563700	0.769600	0.916290
N491	N49	0.226300	0.978530	0.928000
N501	N50	0.372900	0.947170	0.991400
N511	N51	0.386400	0.031400	0.947640
N521	N52	0.279000	0.125600	0.863900
N531	N53	0.976700	0.123990	0.015370
N541	N54	0.013300	0.104080	0.939600
N551	N55	0.005200	0.263180	0.952760
N561	N56	0.936300	0.269600	0.083710
N571	N57	0.773700	0.521470	0.428000
N581	N58	0.627100	0.552830	0.491400
N591	N59	0.613600	0.468600	0.447640
N601	N60	0.721000	0.374400	0.363900
N611	N61	0.023300	0.376010	0.515370
N621	N62	0.986700	0.395920	0.439600
N631	N63	0.994800	0.236820	0.452760
N641	N64	0.063700	0.230400	0.583710
O11	O1	0.394700	0.058250	0.279240
O21	O2	0.482500	0.890530	0.318690
O31	O3	0.417200	0.022900	0.149890
O41	O4	0.502500	0.854840	0.191710
O51	O5	0.605300	0.441750	0.779240
O61	O6	0.517500	0.609470	0.818690
O71	O7	0.582800	0.477100	0.649890
O81	O8	0.497500	0.645160	0.691710
O91	O9	0.894700	0.941750	0.220760
O101	O10	0.982500	0.109470	0.181310
O111	O11	0.917200	0.977100	0.350110
O121	O12	0.002500	0.145160	0.308290
O131	O13	0.105300	0.558250	0.720760
O141	O14	0.017500	0.390530	0.681310
O151	O15	0.082800	0.522900	0.850110
O161	O16	0.997500	0.354840	0.808290
O171	O17	0.605300	0.941750	0.720760
O181	O18	0.517500	0.109470	0.681310
O191	O19	0.582800	0.977100	0.850110
O201	O20	0.497500	0.145160	0.808290
O211	O21	0.394700	0.558250	0.220760
O221	O22	0.482500	0.390530	0.181310
O231	O23	0.417200	0.522900	0.350110
O241	O24	0.502500	0.354840	0.308290
O251	O25	0.105300	0.058250	0.779240
O261	O26	0.017500	0.890530	0.818690
O271	O27	0.082800	0.022900	0.649890
O281	O28	0.997500	0.854840	0.691710
O291	O29	0.894700	0.441750	0.279240
O301	O30	0.982500	0.609470	0.318690
O311	O31	0.917200	0.477100	0.149890
O321	O32	0.002500	0.645160	0.191710
