data_WALKAY_clean_PM
_symmetry_space_group_name_H-M	'P1'
_cell_length_a	7.361000
_cell_length_b	15.645000
_cell_length_c	26.957000
_cell_angle_alpha	90.000000
_cell_angle_beta	90.000000
_cell_angle_gamma	90.000000
_symmetry_Int_Tables_number 1

loop_
_symmetry_equiv_pos_as_xyz
'x,y,z'

loop_
_atom_site_label
_atom_site_type_symbol
_atom_site_fract_x
_atom_site_fract_y
_atom_site_fract_z
Ni11	Ni1	0.489500	0.655870	0.687170
O11	O1	0.388700	0.643000	0.614040
O21	O2	0.601400	0.556200	0.642090
O31	O3	0.879000	0.364300	0.251920
O41	O4	0.643700	0.277200	0.250000
O51	O5	0.086900	0.557100	0.458200
O61	O6	0.280600	0.546800	0.396480
O71	O7	0.174900	0.318700	0.372200
O81	O8	0.234300	0.356900	0.443800
N11	N1	0.344000	0.760900	0.709960
N21	N2	0.709300	0.071600	0.788590
N31	N3	0.241300	0.540100	0.440400
N41	N4	0.284500	0.344000	0.403400
C11	C1	0.342000	0.789600	0.756400
H11	H1	0.420700	0.764600	0.779200
C21	C2	0.232600	0.799800	0.677700
H21	H2	0.237000	0.783200	0.644600
C31	C3	0.231600	0.853300	0.772300
H31	H3	0.238900	0.872200	0.805000
C41	C4	0.113600	0.862000	0.690900
H41	H4	0.036400	0.885700	0.667300
C51	C5	0.107200	0.890600	0.739900
C61	C6	0.972200	0.955400	0.756640
C71	C7	0.799500	0.952000	0.738000
H51	H5	0.767700	0.911100	0.714600
C81	C8	0.016100	0.015300	0.791600
H61	H6	0.132100	0.017800	0.805200
C91	C9	0.671300	0.011500	0.755000
H71	H7	0.554100	0.009000	0.742200
C101	C10	0.880500	0.072600	0.806100
H81	H8	0.910500	0.114200	0.829400
C111	C11	0.496800	0.581700	0.607800
C121	C12	0.506600	0.539200	0.556840
C131	C13	0.641200	0.482800	0.546320
H91	H9	0.724900	0.467400	0.570600
C141	C14	0.653100	0.448000	0.498900
H101	H10	0.749500	0.411800	0.491400
C151	C15	0.525900	0.465800	0.462540
C161	C16	0.383900	0.518000	0.476500
C171	C17	0.373100	0.554500	0.522900
H111	H11	0.275300	0.589400	0.531000
C181	C18	0.735600	0.332200	0.269360
C191	C19	0.676700	0.368800	0.318010
C201	C20	0.512200	0.345200	0.337440
H121	H12	0.436700	0.308300	0.319900
C211	C21	0.457900	0.376700	0.383800
C221	C22	0.563900	0.431800	0.410900
C231	C23	0.728500	0.456700	0.391200
H131	H13	0.801800	0.495300	0.408200
C241	C24	0.785500	0.422900	0.344500
H141	H14	0.898700	0.438000	0.331900
Ni21	Ni2	0.010500	0.344130	0.187170
O91	O9	0.111300	0.357000	0.114040
O101	O10	0.898600	0.443800	0.142090
O111	O11	0.621000	0.635700	0.751920
O121	O12	0.856300	0.722800	0.750000
O131	O13	0.413100	0.442900	0.958200
O141	O14	0.219400	0.453200	0.896480
O151	O15	0.325100	0.681300	0.872200
O161	O16	0.265700	0.643100	0.943800
N51	N5	0.156000	0.239100	0.209960
N61	N6	0.790700	0.928400	0.288590
N71	N7	0.258700	0.459900	0.940400
N81	N8	0.215500	0.656000	0.903400
C251	C25	0.158000	0.210400	0.256400
H151	H15	0.079300	0.235400	0.279200
C261	C26	0.267400	0.200200	0.177700
H161	H16	0.263000	0.216800	0.144600
C271	C27	0.268400	0.146700	0.272300
H171	H17	0.261100	0.127800	0.305000
C281	C28	0.386400	0.138000	0.190900
H181	H18	0.463600	0.114300	0.167300
C291	C29	0.392800	0.109400	0.239900
C301	C30	0.527800	0.044600	0.256640
C311	C31	0.700500	0.048000	0.238000
H191	H19	0.732300	0.088900	0.214600
C321	C32	0.483900	0.984700	0.291600
H201	H20	0.367900	0.982200	0.305200
C331	C33	0.828700	0.988500	0.255000
H211	H21	0.945900	0.991000	0.242200
C341	C34	0.619500	0.927400	0.306100
H221	H22	0.589500	0.885800	0.329400
C351	C35	0.003200	0.418300	0.107800
C361	C36	0.993400	0.460800	0.056840
C371	C37	0.858800	0.517200	0.046320
H231	H23	0.775100	0.532600	0.070600
C381	C38	0.846900	0.552000	0.998900
H241	H24	0.750500	0.588200	0.991400
C391	C39	0.974100	0.534200	0.962540
C401	C40	0.116100	0.482000	0.976500
C411	C41	0.126900	0.445500	0.022900
H251	H25	0.224700	0.410600	0.031000
C421	C42	0.764400	0.667800	0.769360
C431	C43	0.823300	0.631200	0.818010
C441	C44	0.987800	0.654800	0.837440
H261	H26	0.063300	0.691700	0.819900
C451	C45	0.042100	0.623300	0.883800
C461	C46	0.936100	0.568200	0.910900
C471	C47	0.771500	0.543300	0.891200
H271	H27	0.698200	0.504700	0.908200
C481	C48	0.714500	0.577100	0.844500
H281	H28	0.601300	0.562000	0.831900
Ni31	Ni3	0.510500	0.155870	0.812830
O171	O17	0.611300	0.143000	0.885960
O181	O18	0.398600	0.056200	0.857910
O191	O19	0.121000	0.864300	0.248080
O201	O20	0.356300	0.777200	0.250000
O211	O21	0.913100	0.057100	0.041800
O221	O22	0.719400	0.046800	0.103520
O231	O23	0.825100	0.818700	0.127800
O241	O24	0.765700	0.856900	0.056200
N91	N9	0.656000	0.260900	0.790040
N101	N10	0.290700	0.571600	0.711410
N111	N11	0.758700	0.040100	0.059600
N121	N12	0.715500	0.844000	0.096600
C491	C49	0.658000	0.289600	0.743600
H291	H29	0.579300	0.264600	0.720800
C501	C50	0.767400	0.299800	0.822300
H301	H30	0.763000	0.283200	0.855400
C511	C51	0.768400	0.353300	0.727700
H311	H31	0.761100	0.372200	0.695000
C521	C52	0.886400	0.362000	0.809100
H321	H32	0.963600	0.385700	0.832700
C531	C53	0.892800	0.390600	0.760100
C541	C54	0.027800	0.455400	0.743360
C551	C55	0.200500	0.452000	0.762000
H331	H33	0.232300	0.411100	0.785400
C561	C56	0.983900	0.515300	0.708400
H341	H34	0.867900	0.517800	0.694800
C571	C57	0.328700	0.511500	0.745000
H351	H35	0.445900	0.509000	0.757800
C581	C58	0.119500	0.572600	0.693900
H361	H36	0.089500	0.614200	0.670600
C591	C59	0.503200	0.081700	0.892200
C601	C60	0.493400	0.039200	0.943160
C611	C61	0.358800	0.982800	0.953680
H371	H37	0.275100	0.967400	0.929400
C621	C62	0.346900	0.948000	0.001100
H381	H38	0.250500	0.911800	0.008600
C631	C63	0.474100	0.965800	0.037460
C641	C64	0.616100	0.018000	0.023500
C651	C65	0.626900	0.054500	0.977100
H391	H39	0.724700	0.089400	0.969000
C661	C66	0.264400	0.832200	0.230640
C671	C67	0.323300	0.868800	0.181990
C681	C68	0.487800	0.845200	0.162560
H401	H40	0.563300	0.808300	0.180100
C691	C69	0.542100	0.876700	0.116200
C701	C70	0.436100	0.931800	0.089100
C711	C71	0.271500	0.956700	0.108800
H411	H41	0.198200	0.995300	0.091800
C721	C72	0.214500	0.922900	0.155500
H421	H42	0.101300	0.938000	0.168100
Ni41	Ni4	0.989500	0.844130	0.312830
O251	O25	0.888700	0.857000	0.385960
O261	O26	0.101400	0.943800	0.357910
O271	O27	0.379000	0.135700	0.748080
O281	O28	0.143700	0.222800	0.750000
O291	O29	0.586900	0.942900	0.541800
O301	O30	0.780600	0.953200	0.603520
O311	O31	0.674900	0.181300	0.627800
O321	O32	0.734300	0.143100	0.556200
N131	N13	0.844000	0.739100	0.290040
N141	N14	0.209300	0.428400	0.211410
N151	N15	0.741300	0.959900	0.559600
N161	N16	0.784500	0.156000	0.596600
C731	C73	0.842000	0.710400	0.243600
H431	H43	0.920700	0.735400	0.220800
C741	C74	0.732600	0.700200	0.322300
H441	H44	0.737000	0.716800	0.355400
C751	C75	0.731600	0.646700	0.227700
H451	H45	0.738900	0.627800	0.195000
C761	C76	0.613600	0.638000	0.309100
H461	H46	0.536400	0.614300	0.332700
C771	C77	0.607200	0.609400	0.260100
C781	C78	0.472200	0.544600	0.243360
C791	C79	0.299500	0.548000	0.262000
H471	H47	0.267700	0.588900	0.285400
C801	C80	0.516100	0.484700	0.208400
H481	H48	0.632100	0.482200	0.194800
C811	C81	0.171300	0.488500	0.245000
H491	H49	0.054100	0.491000	0.257800
C821	C82	0.380500	0.427400	0.193900
H501	H50	0.410500	0.385800	0.170600
C831	C83	0.996800	0.918300	0.392200
C841	C84	0.006600	0.960800	0.443160
C851	C85	0.141200	0.017200	0.453680
H511	H51	0.224900	0.032600	0.429400
C861	C86	0.153100	0.052000	0.501100
H521	H52	0.249500	0.088200	0.508600
C871	C87	0.025900	0.034200	0.537460
C881	C88	0.883900	0.982000	0.523500
C891	C89	0.873100	0.945500	0.477100
H531	H53	0.775300	0.910600	0.469000
C901	C90	0.235600	0.167800	0.730640
C911	C91	0.176700	0.131200	0.681990
C921	C92	0.012200	0.154800	0.662560
H541	H54	0.936700	0.191700	0.680100
C931	C93	0.957900	0.123300	0.616200
C941	C94	0.063900	0.068200	0.589100
C951	C95	0.228500	0.043300	0.608800
H551	H55	0.301800	0.004700	0.591800
C961	C96	0.285500	0.077100	0.655500
H561	H56	0.398700	0.062000	0.668100
