data_WANBOE_clean_PM
_symmetry_space_group_name_H-M	'P1'
_cell_length_a	17.787900
_cell_length_b	17.980000
_cell_length_c	26.742000
_cell_angle_alpha	88.791000
_cell_angle_beta	79.049000
_cell_angle_gamma	71.306000
_symmetry_Int_Tables_number 1

loop_
_symmetry_equiv_pos_as_xyz
'x,y,z'

loop_
_atom_site_label
_atom_site_type_symbol
_atom_site_fract_x
_atom_site_fract_y
_atom_site_fract_z
Pr11	Pr1	0.398720	0.925590	0.075400
Pr21	Pr2	0.732420	0.745910	0.884980
Pr31	Pr3	0.770060	0.283570	0.776510
Pr41	Pr4	0.079490	0.625370	0.428280
W11	W1	0.078250	0.642270	0.889800
W21	W2	0.161010	0.784860	0.941180
W31	W3	0.258020	0.039040	0.891730
W41	W4	0.999730	0.554380	0.730550
W51	W5	0.339250	0.843860	0.952400
W61	W6	0.121030	0.135280	0.800370
W71	W7	0.263490	0.486220	0.910000
W81	W8	0.277790	0.409130	0.719140
W91	W9	0.501370	0.775130	0.861940
W101	W10	0.082730	0.979040	0.884360
W111	W11	0.951480	0.747790	0.798140
W121	W12	0.423890	0.971980	0.803310
W131	W13	0.404540	0.874600	0.687640
W141	W14	0.132860	0.452810	0.823200
W151	W15	0.344600	0.634390	0.962510
W161	W16	0.271200	0.852060	0.601040
W171	W17	0.155520	0.064760	0.625760
W181	W18	0.952130	0.954650	0.796170
W191	W19	0.273800	0.643170	0.605130
W201	W20	0.911760	0.744780	0.669850
W211	W21	0.985970	0.109040	0.712810
W221	W22	0.145720	0.517530	0.627480
W231	W23	0.292940	0.083260	0.713830
W241	W24	0.411990	0.423810	0.808840
W251	W25	0.495080	0.567220	0.863920
W261	W26	0.484760	0.682260	0.746790
W271	W27	0.405050	0.538460	0.695510
W281	W28	0.068380	0.715880	0.573470
W291	W29	0.069610	0.926900	0.570620
W301	W30	0.910310	0.956000	0.665040
P11	P1	0.102200	0.687800	0.695500
P21	P2	0.101400	0.916900	0.691800
P31	P3	0.246600	0.941600	0.787700
P41	P4	0.334300	0.730800	0.851500
P51	P5	0.245400	0.574800	0.795000
O11	O1	0.315200	0.542500	0.936300
O21	O2	0.286800	0.743600	0.605000
O31	O3	0.203900	0.110000	0.851000
O41	O4	0.455200	0.491800	0.846600
O51	O5	0.083000	0.065900	0.843800
O61	O6	0.234100	0.555200	0.614400
O71	O7	0.108800	0.727400	0.913700
O81	O8	0.367100	0.726600	0.968600
O91	O9	0.460700	0.888600	0.839400
O101	O10	0.959500	0.848900	0.804300
O111	O11	0.072700	0.556000	0.850500
O121	O12	0.967700	0.638800	0.779100
O131	O13	0.175900	0.919500	0.818700
O141	O14	0.943000	0.641400	0.685300
O151	O15	0.441600	0.771500	0.708200
O161	O16	0.942900	0.055900	0.677900
O171	O17	0.517500	0.673300	0.874700
O181	O18	0.356100	0.056800	0.761300
O191	O19	0.910600	0.197300	0.726800
O201	O20	0.343300	0.846300	0.643600
O211	O21	0.244300	0.757000	0.865900
O221	O22	0.317300	0.939100	0.924300
O231	O23	0.049300	0.138800	0.654100
O241	O24	0.113200	0.877600	0.909900
O251	O25	0.015900	0.953500	0.844400
O261	O26	0.442000	0.908500	0.744500
O271	O27	0.504800	0.602600	0.794000
O281	O28	0.361300	0.721900	0.795100
O291	O29	0.857200	0.762100	0.838000
O301	O30	0.204400	0.162400	0.756900
O311	O31	0.347600	0.982600	0.680700
O321	O32	0.232900	0.965400	0.608600
O331	O33	0.297700	0.601700	0.751500
O341	O34	0.442000	0.620500	0.711100
O351	O35	0.092000	0.598300	0.593200
O361	O36	0.185900	0.688500	0.674600
O371	O37	0.168200	0.572800	0.913400
O381	O38	0.202900	0.440900	0.866600
O391	O39	0.100100	0.603000	0.696800
O401	O40	0.068500	0.489500	0.769100
O411	O41	0.456200	0.817500	0.929700
O421	O42	0.062800	0.137400	0.753600
O431	O43	0.012800	0.711600	0.848200
O441	O44	0.171700	0.996600	0.908300
O451	O45	0.211100	0.090800	0.670300
O461	O46	0.966500	0.049800	0.768500
O471	O47	0.364700	0.040200	0.862100
O481	O48	0.337600	0.869300	0.015900
O491	O49	0.067500	0.902600	0.745800
O501	O50	0.506900	0.750400	0.792000
O511	O51	0.210400	0.515800	0.773700
O521	O52	0.237600	0.836700	0.954400
O531	O53	0.440700	0.485100	0.755000
O541	O54	0.205600	0.446500	0.679800
O551	O55	0.188200	0.863400	0.673000
O561	O56	0.303200	0.953200	0.822900
O571	O57	0.911800	0.774800	0.737600
O581	O58	0.916400	0.521400	0.744500
O591	O59	0.956500	0.727400	0.596600
O601	O60	0.069100	0.725700	0.746400
O611	O61	0.344500	0.605600	0.649100
O621	O62	0.452000	0.573200	0.935100
O631	O63	0.098900	0.002500	0.689000
O641	O64	0.046400	0.730800	0.656500
O651	O65	0.176900	0.863700	0.571700
O661	O66	0.907300	0.859900	0.659300
O671	O67	0.358700	0.406400	0.874500
O681	O68	0.300300	0.529800	0.832600
O691	O69	0.951500	0.966100	0.593700
O701	O70	0.052500	0.498100	0.664900
O711	O71	0.213500	0.021500	0.762600
O721	O72	0.209000	0.376200	0.771800
O731	O73	0.370700	0.787800	0.873200
O741	O74	0.348800	0.391700	0.773600
O751	O75	0.072000	0.690000	0.509200
O761	O76	0.295200	0.878600	0.746300
O771	O77	0.048900	0.821300	0.570000
O781	O78	0.092400	0.013900	0.586300
O791	O79	0.044700	0.908600	0.656600
O801	O80	0.909800	0.949500	0.734100
O811	O81	0.597000	0.776200	0.860900
O821	O82	0.343200	0.469300	0.692600
O831	O83	0.241400	0.686700	0.958200
O841	O84	0.177800	0.640900	0.824000
O851	O85	0.367000	0.649700	0.877300
O861	O86	0.176600	0.690400	0.574900
O871	O87	0.628900	0.790700	0.960400
O881	O88	0.529500	0.881200	0.012000
O891	O89	0.852800	0.365700	0.743200
O901	O90	0.340200	0.835500	0.128200
O911	O91	0.341700	0.993600	0.161500
O921	O92	0.670900	0.283000	0.855300
O931	O93	0.936100	0.663500	0.460800
O941	O94	0.146700	0.614600	0.339800
O951	O95	0.807900	0.721000	0.452000
O961	O96	0.684300	0.881300	0.860900
N11	N1	0.990000	0.662800	0.361400
C11	C1	0.907600	0.686900	0.377000
C21	C2	0.858600	0.703200	0.341600
H11	H1	0.801500	0.719900	0.352400
C31	C3	0.892000	0.695500	0.290600
H21	H2	0.858100	0.706900	0.266100
C41	C4	0.974500	0.671500	0.275000
H31	H3	0.997600	0.666100	0.239700
C51	C5	0.023500	0.655100	0.310400
C61	C6	0.891000	0.367000	0.699400
C71	C7	0.875000	0.693000	0.434800
N21	N2	0.468200	0.778600	0.057600
C81	C8	0.538900	0.749600	0.020200
C91	C9	0.571300	0.668500	0.007300
H41	H4	0.619000	0.648900	0.981900
C101	C10	0.533100	0.616500	0.031900
H51	H5	0.554900	0.561800	0.023200
C111	C11	0.462400	0.645600	0.069400
H61	H6	0.436600	0.610500	0.086000
C121	C12	0.429900	0.726600	0.082300
C131	C13	0.569100	0.808900	0.993700
C141	C14	0.361000	0.765500	0.123900
C151	C15	0.271000	0.088000	0.226400
H71	H7	0.271100	0.040200	0.244800
H81	H8	0.302400	0.114600	0.241300
H91	H9	0.215600	0.123000	0.228900
C161	C16	0.311000	0.064800	0.168500
O971	O97	0.682500	0.629500	0.888700
O981	O98	0.747800	0.400600	0.843000
Na11	Na1	0.823600	0.484600	0.809100
Na21	Na2	0.259400	0.491500	0.057700
Pr51	Pr5	0.601280	0.074410	0.924600
Pr61	Pr6	0.267580	0.254090	0.115020
Pr71	Pr7	0.229940	0.716430	0.223490
Pr81	Pr8	0.920510	0.374630	0.571720
W311	W31	0.921750	0.357730	0.110200
W321	W32	0.838990	0.215140	0.058820
W331	W33	0.741980	0.960960	0.108270
W341	W34	0.000270	0.445620	0.269450
W351	W35	0.660750	0.156140	0.047600
W361	W36	0.878970	0.864720	0.199630
W371	W37	0.736510	0.513780	0.090000
W381	W38	0.722210	0.590870	0.280860
W391	W39	0.498630	0.224870	0.138060
W401	W40	0.917270	0.020960	0.115640
W411	W41	0.048520	0.252210	0.201860
W421	W42	0.576110	0.028020	0.196690
W431	W43	0.595460	0.125400	0.312360
W441	W44	0.867140	0.547190	0.176800
W451	W45	0.655400	0.365610	0.037490
W461	W46	0.728800	0.147940	0.398960
W471	W47	0.844480	0.935240	0.374240
W481	W48	0.047870	0.045350	0.203830
W491	W49	0.726200	0.356830	0.394870
W501	W50	0.088240	0.255220	0.330150
W511	W51	0.014030	0.890960	0.287190
W521	W52	0.854280	0.482470	0.372520
W531	W53	0.707060	0.916740	0.286170
W541	W54	0.588010	0.576190	0.191160
W551	W55	0.504920	0.432780	0.136080
W561	W56	0.515240	0.317740	0.253210
W571	W57	0.594950	0.461540	0.304490
W581	W58	0.931620	0.284120	0.426530
W591	W59	0.930390	0.073100	0.429380
W601	W60	0.089690	0.044000	0.334960
P61	P6	0.897800	0.312200	0.304500
P71	P7	0.898600	0.083100	0.308200
P81	P8	0.753400	0.058400	0.212300
P91	P9	0.665700	0.269200	0.148500
P101	P10	0.754600	0.425200	0.205000
O991	O99	0.684800	0.457500	0.063700
O1001	O100	0.713200	0.256400	0.395000
O1011	O101	0.796100	0.890000	0.149000
O1021	O102	0.544800	0.508200	0.153400
O1031	O103	0.917000	0.934100	0.156200
O1041	O104	0.765900	0.444800	0.385600
O1051	O105	0.891200	0.272600	0.086300
O1061	O106	0.632900	0.273400	0.031400
O1071	O107	0.539300	0.111400	0.160600
O1081	O108	0.040500	0.151100	0.195700
O1091	O109	0.927300	0.444000	0.149500
O1101	O110	0.032300	0.361200	0.220900
O1111	O111	0.824100	0.080500	0.181300
O1121	O112	0.057000	0.358600	0.314700
O1131	O113	0.558400	0.228500	0.291800
O1141	O114	0.057100	0.944100	0.322100
O1151	O115	0.482500	0.326700	0.125300
O1161	O116	0.643900	0.943200	0.238700
O1171	O117	0.089400	0.802700	0.273200
O1181	O118	0.656700	0.153700	0.356400
O1191	O119	0.755700	0.243000	0.134100
O1201	O120	0.682700	0.060900	0.075700
O1211	O121	0.950700	0.861200	0.345900
O1221	O122	0.886800	0.122400	0.090100
O1231	O123	0.984100	0.046500	0.155600
O1241	O124	0.558000	0.091500	0.255500
O1251	O125	0.495200	0.397400	0.206000
O1261	O126	0.638700	0.278100	0.204900
O1271	O127	0.142800	0.237900	0.162000
O1281	O128	0.795600	0.837600	0.243100
O1291	O129	0.652400	0.017400	0.319300
O1301	O130	0.767100	0.034600	0.391400
O1311	O131	0.702300	0.398300	0.248500
O1321	O132	0.558000	0.379500	0.288900
O1331	O133	0.908000	0.401700	0.406800
O1341	O134	0.814100	0.311500	0.325400
O1351	O135	0.831800	0.427200	0.086600
O1361	O136	0.797100	0.559100	0.133400
O1371	O137	0.899900	0.397000	0.303200
O1381	O138	0.931500	0.510500	0.230900
O1391	O139	0.543800	0.182500	0.070300
O1401	O140	0.937200	0.862600	0.246400
O1411	O141	0.987200	0.288400	0.151800
O1421	O142	0.828300	0.003400	0.091700
O1431	O143	0.788900	0.909200	0.329700
O1441	O144	0.033500	0.950200	0.231500
O1451	O145	0.635300	0.959800	0.137900
O1461	O146	0.662400	0.130700	0.984100
O1471	O147	0.932500	0.097400	0.254200
O1481	O148	0.493100	0.249600	0.208000
O1491	O149	0.789600	0.484200	0.226300
O1501	O150	0.762400	0.163300	0.045600
O1511	O151	0.559300	0.514900	0.245000
O1521	O152	0.794400	0.553500	0.320200
O1531	O153	0.811800	0.136600	0.327000
O1541	O154	0.696800	0.046800	0.177100
O1551	O155	0.088200	0.225200	0.262400
O1561	O156	0.083600	0.478600	0.255500
O1571	O157	0.043500	0.272600	0.403400
O1581	O158	0.930900	0.274300	0.253600
O1591	O159	0.655500	0.394400	0.350900
O1601	O160	0.548000	0.426800	0.064900
O1611	O161	0.901100	0.997500	0.311000
O1621	O162	0.953600	0.269200	0.343500
O1631	O163	0.823100	0.136300	0.428300
O1641	O164	0.092700	0.140100	0.340700
O1651	O165	0.641300	0.593600	0.125500
O1661	O166	0.699700	0.470200	0.167400
O1671	O167	0.048500	0.033900	0.406300
O1681	O168	0.947500	0.501900	0.335100
O1691	O169	0.786500	0.978500	0.237400
O1701	O170	0.791000	0.623800	0.228200
O1711	O171	0.629300	0.212200	0.126800
O1721	O172	0.651200	0.608300	0.226400
O1731	O173	0.928000	0.310000	0.490800
O1741	O174	0.704800	0.121400	0.253700
O1751	O175	0.951100	0.178700	0.430000
O1761	O176	0.907600	0.986100	0.413700
O1771	O177	0.955300	0.091400	0.343400
O1781	O178	0.090200	0.050500	0.265900
O1791	O179	0.403000	0.223800	0.139100
O1801	O180	0.656800	0.530700	0.307400
O1811	O181	0.758600	0.313300	0.041800
O1821	O182	0.822200	0.359100	0.176000
O1831	O183	0.633000	0.350300	0.122700
O1841	O184	0.823400	0.309600	0.425100
O1851	O185	0.371100	0.209300	0.039600
O1861	O186	0.470500	0.118800	0.988000
O1871	O187	0.147200	0.634300	0.256800
O1881	O188	0.659800	0.164500	0.871800
O1891	O189	0.658300	0.006400	0.838500
O1901	O190	0.329100	0.717000	0.144700
O1911	O191	0.063900	0.336500	0.539200
O1921	O192	0.853300	0.385400	0.660200
O1931	O193	0.192100	0.279000	0.548000
O1941	O194	0.315700	0.118700	0.139100
N31	N3	0.010000	0.337200	0.638600
C171	C17	0.092400	0.313100	0.623000
C181	C18	0.141400	0.296800	0.658400
H101	H10	0.198500	0.280100	0.647600
C191	C19	0.108000	0.304500	0.709400
H111	H11	0.141900	0.293100	0.733900
C201	C20	0.025500	0.328500	0.725000
H121	H12	0.002400	0.333900	0.760300
C211	C21	0.976500	0.344900	0.689600
C221	C22	0.109000	0.633000	0.300600
C231	C23	0.125000	0.307000	0.565200
N41	N4	0.531800	0.221400	0.942400
C241	C24	0.461100	0.250400	0.979800
C251	C25	0.428700	0.331500	0.992700
H131	H13	0.381000	0.351100	0.018100
C261	C26	0.466900	0.383500	0.968100
H141	H14	0.445100	0.438200	0.976800
C271	C27	0.537600	0.354400	0.930600
H151	H15	0.563400	0.389500	0.914000
C281	C28	0.570100	0.273400	0.917700
C291	C29	0.430900	0.191100	0.006300
C301	C30	0.639000	0.234500	0.876100
C311	C31	0.729000	0.912000	0.773600
H161	H16	0.728900	0.959800	0.755200
H171	H17	0.697600	0.885400	0.758700
H181	H18	0.784400	0.877000	0.771100
C321	C32	0.689000	0.935200	0.831500
O1951	O195	0.317500	0.370500	0.111300
O1961	O196	0.252200	0.599400	0.157000
Na31	Na3	0.176400	0.515400	0.190900
Na41	Na4	0.740600	0.508500	0.942300
