data_WANJIF_clean_PM
_symmetry_space_group_name_H-M	'P1'
_cell_length_a	7.819900
_cell_length_b	10.497100
_cell_length_c	19.081000
_cell_angle_alpha	90.000000
_cell_angle_beta	90.000000
_cell_angle_gamma	90.000000
_symmetry_Int_Tables_number 1

loop_
_symmetry_equiv_pos_as_xyz
'x,y,z'

loop_
_atom_site_label
_atom_site_type_symbol
_atom_site_fract_x
_atom_site_fract_y
_atom_site_fract_z
Cu11	Cu1	0.249460	0.410540	0.122400
Cu21	Cu2	0.250540	0.589460	0.622400
Cu31	Cu3	0.750540	0.910540	0.377600
Cu41	Cu4	0.749460	0.089460	0.877600
H11	H1	0.852700	0.512100	0.067100
H21	H2	0.270600	0.531200	0.341300
H31	H3	0.031000	0.792200	0.460700
H41	H4	0.618700	0.387600	0.093900
H51	H5	0.316500	0.688000	0.093500
H61	H6	0.927200	0.775900	0.258800
H71	H7	0.819700	0.731600	0.055800
H81	H8	0.544200	0.818100	0.063200
H91	H9	0.647300	0.487900	0.567100
H101	H10	0.229400	0.468800	0.841300
H111	H11	0.469000	0.207800	0.960700
H121	H12	0.881300	0.612400	0.593900
H131	H13	0.183500	0.312000	0.593500
H141	H14	0.572800	0.224100	0.758800
H151	H15	0.680300	0.268400	0.555800
H161	H16	0.955800	0.181900	0.563200
H171	H17	0.147300	0.012100	0.432900
H181	H18	0.729400	0.031200	0.158700
H191	H19	0.969000	0.292200	0.039300
H201	H20	0.381300	0.887600	0.406100
H211	H21	0.683500	0.188000	0.406500
H221	H22	0.072800	0.275900	0.241200
H231	H23	0.180300	0.231600	0.444200
H241	H24	0.455800	0.318100	0.436800
H251	H25	0.352700	0.987900	0.932900
H261	H26	0.770600	0.968800	0.658700
H271	H27	0.531000	0.707800	0.539300
H281	H28	0.118700	0.112400	0.906100
H291	H29	0.816500	0.812000	0.906500
H301	H30	0.427200	0.724100	0.741200
H311	H31	0.319700	0.768400	0.944200
H321	H32	0.044200	0.681900	0.936800
C11	C1	0.251500	0.607000	0.476690
C21	C2	0.128100	0.590200	0.215860
C31	C3	0.164900	0.653700	0.411000
C41	C4	0.743400	0.550300	0.072700
C51	C5	0.191800	0.599500	0.346190
C61	C6	0.104200	0.644400	0.288200
C71	C7	0.048000	0.753300	0.416240
C81	C8	0.603700	0.476900	0.088700
C91	C9	0.426900	0.651500	0.088100
C101	C10	0.987800	0.744200	0.298280
C111	C11	0.723900	0.678600	0.065000
C121	C12	0.562300	0.729700	0.070900
C131	C13	0.248500	0.393000	0.976690
C141	C14	0.371900	0.409800	0.715860
C151	C15	0.335100	0.346300	0.911000
C161	C16	0.756600	0.449700	0.572700
C171	C17	0.308200	0.400500	0.846190
C181	C18	0.395800	0.355600	0.788200
C191	C19	0.452000	0.246700	0.916240
C201	C20	0.896300	0.523100	0.588700
C211	C21	0.073100	0.348500	0.588100
C221	C22	0.512200	0.255800	0.798280
C231	C23	0.776100	0.321400	0.565000
C241	C24	0.937700	0.270300	0.570900
C251	C25	0.748500	0.107000	0.023310
C261	C26	0.871900	0.090200	0.284140
C271	C27	0.835100	0.153700	0.089000
C281	C28	0.256600	0.050300	0.427300
C291	C29	0.808200	0.099500	0.153810
C301	C30	0.895800	0.144400	0.211800
C311	C31	0.952000	0.253300	0.083760
C321	C32	0.396300	0.976900	0.411300
C331	C33	0.573100	0.151500	0.411900
C341	C34	0.012200	0.244200	0.201720
C351	C35	0.276100	0.178600	0.435000
C361	C36	0.437700	0.229700	0.429100
C371	C37	0.751500	0.893000	0.523310
C381	C38	0.628100	0.909800	0.784140
C391	C39	0.664900	0.846300	0.589000
C401	C40	0.243400	0.949700	0.927300
C411	C41	0.691800	0.900500	0.653810
C421	C42	0.604200	0.855600	0.711800
C431	C43	0.548000	0.746700	0.583760
C441	C44	0.103700	0.023100	0.911300
C451	C45	0.926900	0.848500	0.911900
C461	C46	0.487800	0.755800	0.701720
C471	C47	0.223900	0.821400	0.935000
C481	C48	0.062300	0.770300	0.929100
N11	N1	0.445900	0.526200	0.097370
N21	N2	0.957800	0.797100	0.360960
N31	N3	0.054100	0.473800	0.597370
N41	N4	0.542200	0.202900	0.860960
N51	N5	0.554100	0.026200	0.402630
N61	N6	0.042200	0.297100	0.139040
N71	N7	0.945900	0.973800	0.902630
N81	N8	0.457800	0.702900	0.639040
O11	O1	0.221600	0.489500	0.214020
O21	O2	0.214000	0.670300	0.531770
O31	O3	0.060000	0.640600	0.164990
O41	O4	0.347800	0.514900	0.473800
O51	O5	0.278400	0.510500	0.714020
O61	O6	0.286000	0.329700	0.031770
O71	O7	0.440000	0.359400	0.664990
O81	O8	0.152200	0.485100	0.973800
O91	O9	0.778400	0.989500	0.285980
O101	O10	0.786000	0.170300	0.968230
O111	O11	0.940000	0.140600	0.335010
O121	O12	0.652200	0.014900	0.026200
O131	O13	0.721600	0.010500	0.785980
O141	O14	0.714000	0.829700	0.468230
O151	O15	0.560000	0.859400	0.835010
O161	O16	0.847800	0.985100	0.526200
