data_WANRIM_clean_PM
_symmetry_space_group_name_H-M	'P1'
_cell_length_a	9.668000
_cell_length_b	9.657200
_cell_length_c	10.623000
_cell_angle_alpha	74.161000
_cell_angle_beta	74.675000
_cell_angle_gamma	88.974000
_symmetry_Int_Tables_number 1

loop_
_symmetry_equiv_pos_as_xyz
'x,y,z'

loop_
_atom_site_label
_atom_site_type_symbol
_atom_site_fract_x
_atom_site_fract_y
_atom_site_fract_z
P11	P1	0.502700	0.968800	0.794500
P21	P2	0.275700	0.475900	0.902800
P31	P3	0.034200	0.799600	0.649700
P41	P4	0.187200	0.767900	0.140100
Al11	Al1	0.231400	0.786500	0.839000
Al21	Al2	0.484800	0.224700	0.922300
Al31	Al3	0.178200	0.951400	0.342100
Al41	Al4	0.977200	0.500500	0.867100
O11	O1	0.167100	0.446800	0.830500
O21	O2	0.403700	0.383000	0.877100
O31	O3	0.199300	0.843100	0.990500
O41	O4	0.447400	0.093200	0.852600
O51	O5	0.388100	0.913100	0.745600
O61	O6	0.337300	0.634100	0.838400
O71	O7	0.992600	0.640700	0.707300
O81	O8	0.105500	0.830900	0.497900
O91	O9	0.048400	0.639800	0.947400
O101	O10	0.210800	0.450100	0.055500
O111	O11	0.135500	0.851900	0.717300
O121	O12	0.335100	0.717000	0.153800
O131	O13	0.145700	0.882200	0.216900
O141	O14	0.638500	0.019800	0.678000
O151	O15	0.546000	0.848200	0.903700
O161	O16	0.079800	0.640900	0.197900
O171	O17	0.896900	0.882400	0.668900
H11	H1	0.973100	0.696800	0.968000
P51	P5	0.497300	0.031200	0.205500
P61	P6	0.724300	0.524100	0.097200
P71	P7	0.965800	0.200400	0.350300
P81	P8	0.812800	0.232100	0.859900
Al51	Al5	0.768600	0.213500	0.161000
Al61	Al6	0.515200	0.775300	0.077700
Al71	Al7	0.821800	0.048600	0.657900
Al81	Al8	0.022800	0.499500	0.132900
O181	O18	0.832900	0.553200	0.169500
O191	O19	0.596300	0.617000	0.122900
O201	O20	0.800700	0.156900	0.009500
O211	O21	0.552600	0.906800	0.147400
O221	O22	0.611900	0.086900	0.254400
O231	O23	0.662700	0.365900	0.161600
O241	O24	0.007400	0.359300	0.292700
O251	O25	0.894500	0.169100	0.502100
O261	O26	0.951600	0.360200	0.052600
O271	O27	0.789200	0.549900	0.944500
O281	O28	0.864500	0.148100	0.282700
O291	O29	0.664900	0.283000	0.846200
O301	O30	0.854300	0.117800	0.783100
O311	O31	0.361500	0.980200	0.322000
O321	O32	0.454000	0.151800	0.096300
O331	O33	0.920200	0.359100	0.802100
O341	O34	0.103100	0.117600	0.331100
H21	H2	0.026900	0.303200	0.032000
