data_WANRIM01_clean_PM
_symmetry_space_group_name_H-M	'P1'
_cell_length_a	9.645500
_cell_length_b	9.640600
_cell_length_c	10.598700
_cell_angle_alpha	74.159000
_cell_angle_beta	74.714000
_cell_angle_gamma	88.955000
_symmetry_Int_Tables_number 1

loop_
_symmetry_equiv_pos_as_xyz
'x,y,z'

loop_
_atom_site_label
_atom_site_type_symbol
_atom_site_fract_x
_atom_site_fract_y
_atom_site_fract_z
P11	P1	0.502900	0.968900	0.794300
P21	P2	0.275900	0.476100	0.902800
P31	P3	0.034000	0.798700	0.649600
P41	P4	0.187100	0.768100	0.139900
Al11	Al1	0.231600	0.786600	0.838900
Al21	Al2	0.484300	0.224300	0.922900
Al31	Al3	0.178500	0.951200	0.342200
Al41	Al4	0.977200	0.500400	0.867500
O11	O1	0.169600	0.446600	0.830400
O21	O2	0.403900	0.383900	0.877200
O31	O3	0.199500	0.843200	0.989800
O41	O4	0.448300	0.092400	0.851200
O51	O5	0.389500	0.912800	0.745200
O61	O6	0.337700	0.633200	0.837700
O71	O7	0.992400	0.640900	0.707200
O81	O8	0.105200	0.832500	0.498400
O91	O9	0.046900	0.640300	0.947100
O101	O10	0.211700	0.450000	0.055200
O111	O11	0.135100	0.851600	0.717300
O121	O12	0.336000	0.715600	0.153900
O131	O13	0.147100	0.880900	0.215800
O141	O14	0.636800	0.020100	0.678900
O151	O15	0.545500	0.849700	0.902500
O161	O16	0.080700	0.641800	0.196700
O171	O17	0.895600	0.883000	0.668500
P51	P5	0.497100	0.031100	0.205700
P61	P6	0.724100	0.523900	0.097200
P71	P7	0.966000	0.201300	0.350400
P81	P8	0.812900	0.231900	0.860100
Al51	Al5	0.768400	0.213400	0.161100
Al61	Al6	0.515700	0.775700	0.077100
Al71	Al7	0.821500	0.048800	0.657800
Al81	Al8	0.022800	0.499600	0.132500
O181	O18	0.830400	0.553400	0.169600
O191	O19	0.596100	0.616100	0.122800
O201	O20	0.800500	0.156800	0.010200
O211	O21	0.551700	0.907600	0.148800
O221	O22	0.610500	0.087200	0.254800
O231	O23	0.662300	0.366800	0.162300
O241	O24	0.007600	0.359100	0.292800
O251	O25	0.894800	0.167500	0.501600
O261	O26	0.953100	0.359700	0.052900
O271	O27	0.788300	0.550000	0.944800
O281	O28	0.864900	0.148400	0.282700
O291	O29	0.664000	0.284400	0.846100
O301	O30	0.852900	0.119100	0.784200
O311	O31	0.363200	0.979900	0.321100
O321	O32	0.454500	0.150300	0.097500
O331	O33	0.919300	0.358200	0.803300
O341	O34	0.104400	0.117000	0.331500
