data_WAQDOJ_charged_PM
_symmetry_space_group_name_H-M	'P1'
_cell_length_a	18.883200
_cell_length_b	18.883200
_cell_length_c	18.883200
_cell_angle_alpha	62.098400
_cell_angle_beta	62.098400
_cell_angle_gamma	62.098400
_symmetry_Int_Tables_number 1

loop_
_symmetry_equiv_pos_as_xyz
'x,y,z'

loop_
_atom_site_label
_atom_site_type_symbol
_atom_site_fract_x
_atom_site_fract_y
_atom_site_fract_z
Mg11	Mg1	0.250000	0.351740	0.148260
Mg21	Mg2	0.148260	0.250000	0.351740
Mg31	Mg3	0.351740	0.148260	0.250000
Mg41	Mg4	0.750000	0.648260	0.851740
Mg51	Mg5	0.851740	0.750000	0.648260
Mg61	Mg6	0.648260	0.851740	0.750000
H11	H1	0.967100	0.659300	0.511900
H21	H2	0.106200	0.427900	0.446400
H31	H3	0.067800	0.535300	0.497100
H41	H4	0.139800	0.688100	0.264800
H51	H5	0.180500	0.581500	0.211300
H61	H6	0.511900	0.967100	0.659300
H71	H7	0.446400	0.106200	0.427900
H81	H8	0.497100	0.067800	0.535300
H91	H9	0.264800	0.139800	0.688100
H101	H10	0.211300	0.180500	0.581500
H111	H11	0.659300	0.511900	0.967100
H121	H12	0.427900	0.446400	0.106200
H131	H13	0.535300	0.497100	0.067800
H141	H14	0.688100	0.264800	0.139800
H151	H15	0.581500	0.211300	0.180500
H161	H16	0.840700	0.532900	0.988100
H171	H17	0.072100	0.393800	0.053600
H181	H18	0.964700	0.432200	0.002900
H191	H19	0.811900	0.360200	0.235200
H201	H20	0.918500	0.319500	0.288700
H211	H21	0.532900	0.988100	0.840700
H221	H22	0.393800	0.053600	0.072100
H231	H23	0.432200	0.002900	0.964700
H241	H24	0.360200	0.235200	0.811900
H251	H25	0.319500	0.288700	0.918500
H261	H26	0.988100	0.840700	0.532900
H271	H27	0.053600	0.072100	0.393800
H281	H28	0.002900	0.964700	0.432200
H291	H29	0.235200	0.811900	0.360200
H301	H30	0.288700	0.918500	0.319500
H311	H31	0.032900	0.340700	0.488100
H321	H32	0.893800	0.572100	0.553600
H331	H33	0.932200	0.464700	0.502900
H341	H34	0.860200	0.311900	0.735200
H351	H35	0.819500	0.418500	0.788700
H361	H36	0.488100	0.032900	0.340700
H371	H37	0.553600	0.893800	0.572100
H381	H38	0.502900	0.932200	0.464700
H391	H39	0.735200	0.860200	0.311900
H401	H40	0.788700	0.819500	0.418500
H411	H41	0.340700	0.488100	0.032900
H421	H42	0.572100	0.553600	0.893800
H431	H43	0.464700	0.502900	0.932200
H441	H44	0.311900	0.735200	0.860200
H451	H45	0.418500	0.788700	0.819500
H461	H46	0.159300	0.467100	0.011900
H471	H47	0.927900	0.606200	0.946400
H481	H48	0.035300	0.567800	0.997100
H491	H49	0.188100	0.639800	0.764800
H501	H50	0.081500	0.680500	0.711300
H511	H51	0.467100	0.011900	0.159300
H521	H52	0.606200	0.946400	0.927900
H531	H53	0.567800	0.997100	0.035300
H541	H54	0.639800	0.764800	0.188100
H551	H55	0.680500	0.711300	0.081500
H561	H56	0.011900	0.159300	0.467100
H571	H57	0.946400	0.927900	0.606200
H581	H58	0.997100	0.035300	0.567800
H591	H59	0.764800	0.188100	0.639800
H601	H60	0.711300	0.081500	0.680500
H611	H61	0.157350	0.750000	0.342650
H621	H62	0.342650	0.157350	0.750000
H631	H63	0.750000	0.342650	0.157350
H641	H64	0.842650	0.250000	0.657350
H651	H65	0.657350	0.842650	0.250000
H661	H66	0.250000	0.657350	0.842650
C11	C1	0.996780	0.695870	0.493170
C21	C2	0.071740	0.689520	0.423060
C31	C3	0.162870	0.427640	0.288170
C41	C4	0.148270	0.493290	0.321330
C51	C5	0.113420	0.479760	0.408980
C61	C6	0.090050	0.544860	0.439040
C71	C7	0.098920	0.624240	0.384660
C81	C8	0.132540	0.636140	0.301940
C91	C9	0.157320	0.571120	0.269520
C101	C10	0.493170	0.996780	0.695870
C111	C11	0.423060	0.071740	0.689520
C121	C12	0.288170	0.162870	0.427640
C131	C13	0.321330	0.148270	0.493290
C141	C14	0.408980	0.113420	0.479760
C151	C15	0.439040	0.090050	0.544860
C161	C16	0.384660	0.098920	0.624240
C171	C17	0.301940	0.132540	0.636140
C181	C18	0.269520	0.157320	0.571120
C191	C19	0.695870	0.493170	0.996780
C201	C20	0.689520	0.423060	0.071740
C211	C21	0.427640	0.288170	0.162870
C221	C22	0.493290	0.321330	0.148270
C231	C23	0.479760	0.408980	0.113420
C241	C24	0.544860	0.439040	0.090050
C251	C25	0.624240	0.384660	0.098920
C261	C26	0.636140	0.301940	0.132540
C271	C27	0.571120	0.269520	0.157320
C281	C28	0.804130	0.503220	0.006830
C291	C29	0.810480	0.428260	0.076940
C301	C30	0.072360	0.337130	0.211830
C311	C31	0.006710	0.351730	0.178670
C321	C32	0.020240	0.386580	0.091020
C331	C33	0.955140	0.409950	0.060960
C341	C34	0.875760	0.401080	0.115340
C351	C35	0.863860	0.367460	0.198060
C361	C36	0.928880	0.342680	0.230480
C371	C37	0.503220	0.006830	0.804130
C381	C38	0.428260	0.076940	0.810480
C391	C39	0.337130	0.211830	0.072360
C401	C40	0.351730	0.178670	0.006710
C411	C41	0.386580	0.091020	0.020240
C421	C42	0.409950	0.060960	0.955140
C431	C43	0.401080	0.115340	0.875760
C441	C44	0.367460	0.198060	0.863860
C451	C45	0.342680	0.230480	0.928880
C461	C46	0.006830	0.804130	0.503220
C471	C47	0.076940	0.810480	0.428260
C481	C48	0.211830	0.072360	0.337130
C491	C49	0.178670	0.006710	0.351730
C501	C50	0.091020	0.020240	0.386580
C511	C51	0.060960	0.955140	0.409950
C521	C52	0.115340	0.875760	0.401080
C531	C53	0.198060	0.863860	0.367460
C541	C54	0.230480	0.928880	0.342680
C551	C55	0.003220	0.304130	0.506830
C561	C56	0.928260	0.310480	0.576940
C571	C57	0.837130	0.572360	0.711830
C581	C58	0.851730	0.506710	0.678670
C591	C59	0.886580	0.520240	0.591020
C601	C60	0.909950	0.455140	0.560960
C611	C61	0.901080	0.375760	0.615340
C621	C62	0.867460	0.363860	0.698060
C631	C63	0.842680	0.428880	0.730480
C641	C64	0.506830	0.003220	0.304130
C651	C65	0.576940	0.928260	0.310480
C661	C66	0.711830	0.837130	0.572360
C671	C67	0.678670	0.851730	0.506710
C681	C68	0.591020	0.886580	0.520240
C691	C69	0.560960	0.909950	0.455140
C701	C70	0.615340	0.901080	0.375760
C711	C71	0.698060	0.867460	0.363860
C721	C72	0.730480	0.842680	0.428880
C731	C73	0.304130	0.506830	0.003220
C741	C74	0.310480	0.576940	0.928260
C751	C75	0.572360	0.711830	0.837130
C761	C76	0.506710	0.678670	0.851730
C771	C77	0.520240	0.591020	0.886580
C781	C78	0.455140	0.560960	0.909950
C791	C79	0.375760	0.615340	0.901080
C801	C80	0.363860	0.698060	0.867460
C811	C81	0.428880	0.730480	0.842680
C821	C82	0.195870	0.496780	0.993170
C831	C83	0.189520	0.571740	0.923060
C841	C84	0.927640	0.662870	0.788170
C851	C85	0.993290	0.648270	0.821330
C861	C86	0.979760	0.613420	0.908980
C871	C87	0.044860	0.590050	0.939040
C881	C88	0.124240	0.598920	0.884660
C891	C89	0.136140	0.632540	0.801940
C901	C90	0.071120	0.657320	0.769520
C911	C91	0.496780	0.993170	0.195870
C921	C92	0.571740	0.923060	0.189520
C931	C93	0.662870	0.788170	0.927640
C941	C94	0.648270	0.821330	0.993290
C951	C95	0.613420	0.908980	0.979760
C961	C96	0.590050	0.939040	0.044860
C971	C97	0.598920	0.884660	0.124240
C981	C98	0.632540	0.801940	0.136140
C991	C99	0.657320	0.769520	0.071120
C1001	C100	0.993170	0.195870	0.496780
C1011	C101	0.923060	0.189520	0.571740
C1021	C102	0.788170	0.927640	0.662870
C1031	C103	0.821330	0.993290	0.648270
C1041	C104	0.908980	0.979760	0.613420
C1051	C105	0.939040	0.044860	0.590050
C1061	C106	0.884660	0.124240	0.598920
C1071	C107	0.801940	0.136140	0.632540
C1081	C108	0.769520	0.071120	0.657320
C1091	C109	0.109650	0.750000	0.390350
C1101	C110	0.390350	0.109650	0.750000
C1111	C111	0.750000	0.390350	0.109650
C1121	C112	0.890350	0.250000	0.609650
C1131	C113	0.609650	0.890350	0.250000
C1141	C114	0.250000	0.609650	0.890350
N11	N1	0.966570	0.750000	0.533430
N21	N2	0.533430	0.966570	0.750000
N31	N3	0.750000	0.533430	0.966570
N41	N4	0.033430	0.250000	0.466570
N51	N5	0.466570	0.033430	0.250000
N61	N6	0.250000	0.466570	0.033430
O11	O1	0.210760	0.432830	0.213280
O21	O2	0.129130	0.371770	0.337970
O31	O3	0.213280	0.210760	0.432830
O41	O4	0.337970	0.129130	0.371770
O51	O5	0.432830	0.213280	0.210760
O61	O6	0.371770	0.337970	0.129130
O71	O7	0.067170	0.289240	0.286720
O81	O8	0.128230	0.370870	0.162030
O91	O9	0.289240	0.286720	0.067170
O101	O10	0.370870	0.162030	0.128230
O111	O11	0.286720	0.067170	0.289240
O121	O12	0.162030	0.128230	0.370870
O131	O13	0.789240	0.567170	0.786720
O141	O14	0.870870	0.628230	0.662030
O151	O15	0.786720	0.789240	0.567170
O161	O16	0.662030	0.870870	0.628230
O171	O17	0.567170	0.786720	0.789240
O181	O18	0.628230	0.662030	0.870870
O191	O19	0.932830	0.710760	0.713280
O201	O20	0.871770	0.629130	0.837970
O211	O21	0.710760	0.713280	0.932830
O221	O22	0.629130	0.837970	0.871770
O231	O23	0.713280	0.932830	0.710760
O241	O24	0.837970	0.871770	0.629130
O251	O25	0.250000	0.250000	0.250000
O261	O26	0.750000	0.750000	0.750000
