data_WAQFIG_clean_PM
_symmetry_space_group_name_H-M	'P1'
_cell_length_a	10.246000
_cell_length_b	16.147000
_cell_length_c	19.161000
_cell_angle_alpha	90.000000
_cell_angle_beta	99.980000
_cell_angle_gamma	90.000000
_symmetry_Int_Tables_number 1

loop_
_symmetry_equiv_pos_as_xyz
'x,y,z'

loop_
_atom_site_label
_atom_site_type_symbol
_atom_site_fract_x
_atom_site_fract_y
_atom_site_fract_z
Zn11	Zn1	0.721290	0.132470	0.010710
Zn21	Zn2	0.964870	0.226610	0.125450
S11	S1	0.797170	0.376260	0.532120
C11	C1	0.217800	0.232800	0.155100
C21	C2	0.357200	0.249500	0.189200
C31	C3	0.458400	0.237800	0.150500
H11	H1	0.439600	0.219800	0.103700
C41	C4	0.590000	0.253500	0.183300
C51	C5	0.699700	0.239400	0.142600
C61	C6	0.619500	0.278200	0.253200
H21	H2	0.707100	0.287600	0.274300
C71	C7	0.516900	0.289300	0.292400
C81	C8	0.385500	0.275400	0.260000
H31	H3	0.317000	0.283300	0.285500
C91	C9	0.652400	0.335400	0.402500
C101	C10	0.651700	0.347600	0.480900
C111	C11	0.557600	0.339600	0.520000
H41	H4	0.471200	0.323900	0.501400
C121	C12	0.601600	0.357200	0.593100
H51	H5	0.547500	0.355100	0.627300
C131	C13	0.730300	0.377300	0.606600
C141	C14	0.820900	0.392500	0.674400
C151	C15	0.842100	0.391600	0.803300
C161	C16	0.835600	0.330100	0.853900
H61	H6	0.787400	0.282100	0.840800
C171	C17	0.899400	0.339600	0.922800
C181	C18	0.977200	0.413200	0.941300
H71	H7	0.023100	0.420500	0.987200
C191	C19	0.982800	0.471400	0.891300
C201	C20	0.912900	0.464400	0.820700
H81	H8	0.914400	0.506400	0.787700
C211	C21	0.059300	0.549400	0.910200
C221	C22	0.886800	0.278100	0.977900
N11	N1	0.538100	0.312800	0.363000
H91	H9	0.469900	0.312700	0.383600
N21	N2	0.766800	0.380800	0.734000
H101	H10	0.684900	0.366500	0.729600
O11	O1	0.669900	0.212700	0.079630
O21	O2	0.816800	0.256400	0.174080
O31	O3	0.126700	0.260100	0.189810
O41	O4	0.191900	0.197700	0.096980
O51	O5	0.941400	0.294500	0.040860
O61	O6	0.822000	0.214800	0.958650
O71	O7	0.128500	0.553700	0.971870
O81	O8	0.051900	0.605900	0.864170
O91	O9	0.755600	0.344000	0.382700
O101	O10	0.934000	0.414100	0.675400
Zn31	Zn3	0.278710	0.632470	0.989290
Zn41	Zn4	0.035130	0.726610	0.874550
S21	S2	0.202830	0.876260	0.467880
C231	C23	0.782200	0.732800	0.844900
C241	C24	0.642800	0.749500	0.810800
C251	C25	0.541600	0.737800	0.849500
H111	H11	0.560400	0.719800	0.896300
C261	C26	0.410000	0.753500	0.816700
C271	C27	0.300300	0.739400	0.857400
C281	C28	0.380500	0.778200	0.746800
H121	H12	0.292900	0.787600	0.725700
C291	C29	0.483100	0.789300	0.707600
C301	C30	0.614500	0.775400	0.740000
H131	H13	0.683000	0.783300	0.714500
C311	C31	0.347600	0.835400	0.597500
C321	C32	0.348300	0.847600	0.519100
C331	C33	0.442400	0.839600	0.480000
H141	H14	0.528800	0.823900	0.498600
C341	C34	0.398400	0.857200	0.406900
H151	H15	0.452500	0.855100	0.372700
C351	C35	0.269700	0.877300	0.393400
C361	C36	0.179100	0.892500	0.325600
C371	C37	0.157900	0.891600	0.196700
C381	C38	0.164400	0.830100	0.146100
H161	H16	0.212600	0.782100	0.159200
C391	C39	0.100600	0.839600	0.077200
C401	C40	0.022800	0.913200	0.058700
H171	H17	0.976900	0.920500	0.012800
C411	C41	0.017200	0.971400	0.108700
C421	C42	0.087100	0.964400	0.179300
H181	H18	0.085600	0.006400	0.212300
C431	C43	0.940700	0.049400	0.089800
C441	C44	0.113200	0.778100	0.022100
N31	N3	0.461900	0.812800	0.637000
H191	H19	0.530100	0.812700	0.616400
N41	N4	0.233200	0.880800	0.266000
H201	H20	0.315100	0.866500	0.270400
O111	O11	0.330100	0.712700	0.920370
O121	O12	0.183200	0.756400	0.825920
O131	O13	0.873300	0.760100	0.810190
O141	O14	0.808100	0.697700	0.903020
O151	O15	0.058600	0.794500	0.959140
O161	O16	0.178000	0.714800	0.041350
O171	O17	0.871500	0.053700	0.028130
O181	O18	0.948100	0.105900	0.135830
O191	O19	0.244400	0.844000	0.617300
O201	O20	0.066000	0.914100	0.324600
