data_WAQFAX_clean_PM
_symmetry_space_group_name_H-M	'P1'
_cell_length_a	22.046600
_cell_length_b	22.046600
_cell_length_c	36.772000
_cell_angle_alpha	90.000000
_cell_angle_beta	90.000000
_cell_angle_gamma	90.000000
_symmetry_Int_Tables_number 1

loop_
_symmetry_equiv_pos_as_xyz
'x,y,z'

loop_
_atom_site_label
_atom_site_type_symbol
_atom_site_fract_x
_atom_site_fract_y
_atom_site_fract_z
In11	In1	0.000590	0.713200	0.849250
In21	In2	0.995750	0.651390	0.760640
In31	In3	0.490450	0.307800	0.977840
In41	In4	0.999410	0.286800	0.349250
In51	In5	0.004250	0.348610	0.260640
In61	In6	0.509550	0.692200	0.477840
In71	In7	0.786800	0.500590	0.599250
In81	In8	0.848610	0.495750	0.510640
In91	In9	0.192200	0.990450	0.727840
In101	In10	0.213200	0.499410	0.099250
In111	In11	0.151390	0.504250	0.010640
In121	In12	0.807800	0.009550	0.227840
In131	In13	0.499410	0.213200	0.900750
In141	In14	0.504250	0.151390	0.989360
In151	In15	0.009550	0.807800	0.772160
In161	In16	0.500590	0.786800	0.400750
In171	In17	0.495750	0.848610	0.489360
In181	In18	0.990450	0.192200	0.272160
In191	In19	0.713200	0.000590	0.150750
In201	In20	0.651390	0.995750	0.239360
In211	In21	0.307800	0.490450	0.022160
In221	In22	0.286800	0.999410	0.650750
In231	In23	0.348610	0.004250	0.739360
In241	In24	0.692200	0.509550	0.522160
H11	H1	0.858200	0.597500	0.887300
H21	H2	0.779700	0.535700	0.905300
H31	H3	0.765800	0.468400	0.805500
H41	H4	0.844300	0.528600	0.787800
H51	H5	0.704300	0.490100	0.918000
H61	H6	0.630300	0.428000	0.940800
H71	H7	0.640000	0.331000	0.851100
H81	H8	0.712400	0.395600	0.829200
H91	H9	0.124300	0.927400	0.824200
H101	H10	0.200400	0.990100	0.842700
H111	H11	0.224900	0.880300	0.929200
H121	H12	0.153400	0.817500	0.907200
H131	H13	0.310000	0.995700	0.849200
H141	H14	0.384200	0.060100	0.864100
H151	H15	0.339900	0.041700	0.969500
H161	H16	0.262200	0.977800	0.953700
H171	H17	0.859300	0.666700	0.680000
H181	H18	0.792700	0.674600	0.631900
H191	H19	0.821000	0.852500	0.628200
H201	H20	0.889100	0.845900	0.676100
H211	H21	0.772400	0.691000	0.573400
H221	H22	0.691600	0.692100	0.532000
H231	H23	0.635100	0.852000	0.573600
H241	H24	0.720300	0.851000	0.611200
H251	H25	0.141800	0.402500	0.387300
H261	H26	0.220300	0.464300	0.405300
H271	H27	0.234200	0.531600	0.305500
H281	H28	0.155700	0.471400	0.287800
H291	H29	0.295700	0.509900	0.418000
H301	H30	0.369700	0.572000	0.440800
H311	H31	0.360000	0.669000	0.351100
H321	H32	0.287600	0.604400	0.329200
H331	H33	0.875700	0.072600	0.324200
H341	H34	0.799600	0.009900	0.342700
H351	H35	0.775100	0.119700	0.429200
H361	H36	0.846600	0.182500	0.407200
H371	H37	0.690000	0.004300	0.349200
H381	H38	0.615800	0.939900	0.364100
H391	H39	0.660100	0.958300	0.469500
H401	H40	0.737800	0.022200	0.453700
H411	H41	0.140700	0.333300	0.180000
H421	H42	0.207300	0.325400	0.131900
H431	H43	0.179000	0.147500	0.128200
H441	H44	0.110900	0.154100	0.176100
H451	H45	0.227600	0.309000	0.073400
H461	H46	0.308400	0.307900	0.032000
H471	H47	0.364900	0.148000	0.073600
H481	H48	0.279700	0.149000	0.111200
H491	H49	0.902500	0.358200	0.637300
H501	H50	0.964300	0.279700	0.655300
H511	H51	0.031600	0.265800	0.555500
H521	H52	0.971400	0.344300	0.537800
H531	H53	0.009900	0.204300	0.668000
H541	H54	0.072000	0.130300	0.690800
H551	H55	0.169000	0.140000	0.601100
H561	H56	0.104400	0.212400	0.579200
H571	H57	0.572600	0.624300	0.574200
H581	H58	0.509900	0.700400	0.592700
H591	H59	0.619700	0.724900	0.679200
H601	H60	0.682500	0.653400	0.657200
H611	H61	0.504300	0.810000	0.599200
H621	H62	0.439900	0.884200	0.614100
H631	H63	0.458300	0.839900	0.719500
H641	H64	0.522200	0.762200	0.703700
H651	H65	0.833300	0.359300	0.430000
H661	H66	0.825400	0.292700	0.381900
H671	H67	0.647500	0.321000	0.378200
H681	H68	0.654100	0.389100	0.426100
H691	H69	0.809000	0.272400	0.323400
H701	H70	0.807900	0.191600	0.282000
H711	H71	0.648000	0.135100	0.323600
H721	H72	0.649000	0.220300	0.361200
H731	H73	0.097500	0.641800	0.137300
H741	H74	0.035700	0.720300	0.155300
H751	H75	0.968400	0.734200	0.055500
H761	H76	0.028600	0.655700	0.037800
H771	H77	0.990100	0.795700	0.168000
H781	H78	0.928000	0.869700	0.190800
H791	H79	0.831000	0.860000	0.101100
H801	H80	0.895600	0.787600	0.079200
H811	H81	0.427400	0.375700	0.074200
H821	H82	0.490100	0.299600	0.092700
H831	H83	0.380300	0.275100	0.179200
H841	H84	0.317500	0.346600	0.157200
H851	H85	0.495700	0.190000	0.099200
H861	H86	0.560100	0.115800	0.114100
H871	H87	0.541700	0.160100	0.219500
H881	H88	0.477800	0.237800	0.203700
H891	H89	0.166700	0.640700	0.930000
H901	H90	0.174600	0.707300	0.881900
H911	H91	0.352500	0.679000	0.878200
H921	H92	0.345900	0.610900	0.926100
H931	H93	0.191000	0.727600	0.823400
H941	H94	0.192100	0.808400	0.782000
H951	H95	0.352000	0.864900	0.823600
H961	H96	0.351000	0.779700	0.861200
H971	H97	0.641800	0.097500	0.862700
H981	H98	0.720300	0.035700	0.844700
H991	H99	0.734200	0.968400	0.944500
H1001	H100	0.655700	0.028600	0.962200
H1011	H101	0.795700	0.990100	0.832000
H1021	H102	0.869700	0.928000	0.809200
H1031	H103	0.860000	0.831000	0.898900
H1041	H104	0.787600	0.895600	0.920800
H1051	H105	0.375700	0.427400	0.925800
H1061	H106	0.299600	0.490100	0.907300
H1071	H107	0.275100	0.380300	0.820800
H1081	H108	0.346600	0.317500	0.842800
H1091	H109	0.190000	0.495700	0.900800
H1101	H110	0.115800	0.560100	0.885900
H1111	H111	0.160100	0.541700	0.780500
H1121	H112	0.237800	0.477800	0.796300
H1131	H113	0.640700	0.166700	0.070000
H1141	H114	0.707300	0.174600	0.118100
H1151	H115	0.679000	0.352500	0.121800
H1161	H116	0.610900	0.345900	0.073900
H1171	H117	0.727600	0.191000	0.176600
H1181	H118	0.808400	0.192100	0.218000
H1191	H119	0.864900	0.352000	0.176400
H1201	H120	0.779700	0.351000	0.138800
H1211	H121	0.358200	0.902500	0.362700
H1221	H122	0.279700	0.964300	0.344700
H1231	H123	0.265800	0.031600	0.444500
H1241	H124	0.344300	0.971400	0.462200
H1251	H125	0.204300	0.009900	0.332000
H1261	H126	0.130300	0.072000	0.309200
H1271	H127	0.140000	0.169000	0.398900
H1281	H128	0.212400	0.104400	0.420800
H1291	H129	0.624300	0.572600	0.425800
H1301	H130	0.700400	0.509900	0.407300
H1311	H131	0.724900	0.619700	0.320800
H1321	H132	0.653400	0.682500	0.342800
H1331	H133	0.810000	0.504300	0.400800
H1341	H134	0.884200	0.439900	0.385900
H1351	H135	0.839900	0.458300	0.280500
H1361	H136	0.762200	0.522200	0.296300
H1371	H137	0.359300	0.833300	0.570000
H1381	H138	0.292700	0.825400	0.618100
H1391	H139	0.321000	0.647500	0.621800
H1401	H140	0.389100	0.654100	0.573900
H1411	H141	0.272400	0.809000	0.676600
H1421	H142	0.191600	0.807900	0.718000
H1431	H143	0.135100	0.648000	0.676400
H1441	H144	0.220300	0.649000	0.638800
H1451	H145	0.597500	0.858200	0.112700
H1461	H146	0.535700	0.779700	0.094700
H1471	H147	0.468400	0.765800	0.194500
H1481	H148	0.528600	0.844300	0.212200
H1491	H149	0.490100	0.704300	0.082000
H1501	H150	0.428000	0.630300	0.059200
H1511	H151	0.331000	0.640000	0.148900
H1521	H152	0.395600	0.712400	0.170800
H1531	H153	0.927400	0.124300	0.175800
H1541	H154	0.990100	0.200400	0.157300
H1551	H155	0.880300	0.224900	0.070800
H1561	H156	0.817500	0.153400	0.092800
H1571	H157	0.995700	0.310000	0.150800
H1581	H158	0.060100	0.384200	0.135900
H1591	H159	0.041700	0.339900	0.030500
H1601	H160	0.977800	0.262200	0.046300
H1611	H161	0.666700	0.859300	0.320000
H1621	H162	0.674600	0.792700	0.368100
H1631	H163	0.852500	0.821000	0.371800
H1641	H164	0.845900	0.889100	0.323900
H1651	H165	0.691000	0.772400	0.426600
H1661	H166	0.692100	0.691600	0.468000
H1671	H167	0.852000	0.635100	0.426400
H1681	H168	0.851000	0.720300	0.388800
H1691	H169	0.402500	0.141800	0.612700
H1701	H170	0.464300	0.220300	0.594700
H1711	H171	0.531600	0.234200	0.694500
H1721	H172	0.471400	0.155700	0.712200
H1731	H173	0.509900	0.295700	0.582000
H1741	H174	0.572000	0.369700	0.559200
H1751	H175	0.669000	0.360000	0.648900
H1761	H176	0.604400	0.287600	0.670800
H1771	H177	0.072600	0.875700	0.675800
H1781	H178	0.009900	0.799600	0.657300
H1791	H179	0.119700	0.775100	0.570800
H1801	H180	0.182500	0.846600	0.592800
H1811	H181	0.004300	0.690000	0.650800
H1821	H182	0.939900	0.615800	0.635900
H1831	H183	0.958300	0.660100	0.530500
H1841	H184	0.022200	0.737800	0.546300
H1851	H185	0.333300	0.140700	0.820000
H1861	H186	0.325400	0.207300	0.868100
H1871	H187	0.147500	0.179000	0.871800
H1881	H188	0.154100	0.110900	0.823900
H1891	H189	0.309000	0.227600	0.926600
H1901	H190	0.307900	0.308400	0.968000
H1911	H191	0.148000	0.364900	0.926400
H1921	H192	0.149000	0.279700	0.888800
C11	C1	0.858400	0.569500	0.835700
C21	C2	0.840200	0.571100	0.870800
C31	C3	0.794200	0.532500	0.881600
C41	C4	0.768700	0.490000	0.859400
C51	C5	0.785800	0.492400	0.822500
C61	C6	0.831200	0.529800	0.811800
C71	C7	0.906800	0.612300	0.824100
C81	C8	0.720300	0.447700	0.872300
C91	C9	0.692800	0.456500	0.904300
C101	C10	0.647900	0.418900	0.918500
C111	C11	0.629400	0.368200	0.899600
C121	C12	0.653500	0.362400	0.866000
C131	C13	0.697800	0.401600	0.852700
C141	C14	0.581800	0.329400	0.914300
C151	C15	0.132400	0.866000	0.862600
C161	C16	0.146400	0.917300	0.844900
C171	C17	0.191500	0.955200	0.855900
C181	C18	0.225300	0.940300	0.888100
C191	C19	0.206600	0.889300	0.907000
C201	C20	0.163100	0.852500	0.894400
C211	C21	0.087600	0.823700	0.846700
C221	C22	0.276300	0.981100	0.899000
C231	C23	0.315100	0.006200	0.873500
C241	C24	0.359100	0.044300	0.882100
C251	C25	0.367700	0.060800	0.918700
C261	C26	0.332400	0.033600	0.945100
C271	C27	0.286500	0.994900	0.935800
C281	C28	0.416400	0.103200	0.929000
C291	C29	0.879900	0.755300	0.683800
C301	C30	0.851300	0.704500	0.669900
C311	C31	0.811200	0.709200	0.641300
C321	C32	0.798700	0.764500	0.626900
C331	C33	0.828300	0.815200	0.639100
C341	C34	0.869200	0.811400	0.667800
C351	C35	0.924200	0.748000	0.714900
C361	C36	0.750600	0.768300	0.598400
C371	C37	0.744500	0.722600	0.573800
C381	C38	0.695700	0.723300	0.548900
C391	C39	0.653400	0.771100	0.549600
C401	C40	0.661900	0.819400	0.573200
C411	C41	0.712300	0.817600	0.596500
C421	C42	0.598400	0.769300	0.525900
C431	C43	0.141600	0.430500	0.335700
C441	C44	0.159800	0.428900	0.370800
C451	C45	0.205800	0.467500	0.381600
C461	C46	0.231300	0.510000	0.359400
C471	C47	0.214200	0.507600	0.322500
C481	C48	0.168800	0.470200	0.311800
C491	C49	0.093200	0.387700	0.324100
C501	C50	0.279700	0.552300	0.372300
C511	C51	0.307200	0.543500	0.404300
C521	C52	0.352100	0.581100	0.418500
C531	C53	0.370600	0.631800	0.399600
C541	C54	0.346500	0.637600	0.366000
C551	C55	0.302200	0.598400	0.352700
C561	C56	0.418200	0.670600	0.414300
C571	C57	0.867600	0.134000	0.362600
C581	C58	0.853600	0.082700	0.344900
C591	C59	0.808500	0.044800	0.355900
C601	C60	0.774700	0.059700	0.388100
C611	C61	0.793400	0.110700	0.407000
C621	C62	0.836900	0.147500	0.394400
C631	C63	0.912400	0.176300	0.346700
C641	C64	0.723700	0.018900	0.399000
C651	C65	0.684900	0.993800	0.373500
C661	C66	0.640900	0.955700	0.382100
C671	C67	0.632300	0.939200	0.418700
C681	C68	0.667600	0.966400	0.445100
C691	C69	0.713500	0.005100	0.435800
C701	C70	0.583600	0.896800	0.429000
C711	C71	0.120100	0.244700	0.183800
C721	C72	0.148700	0.295500	0.169900
C731	C73	0.188800	0.290800	0.141300
C741	C74	0.201300	0.235500	0.126900
C751	C75	0.171700	0.184800	0.139100
C761	C76	0.130800	0.188600	0.167800
C771	C77	0.075800	0.252000	0.214900
C781	C78	0.249400	0.231700	0.098400
C791	C79	0.255500	0.277400	0.073800
C801	C80	0.304300	0.276700	0.048900
C811	C81	0.346600	0.228900	0.049600
C821	C82	0.338100	0.180600	0.073200
C831	C83	0.287700	0.182400	0.096500
C841	C84	0.401600	0.230700	0.025900
C851	C85	0.930500	0.358400	0.585700
C861	C86	0.928900	0.340200	0.620800
C871	C87	0.967500	0.294200	0.631600
C881	C88	0.010000	0.268700	0.609400
C891	C89	0.007600	0.285800	0.572500
C901	C90	0.970200	0.331200	0.561800
C911	C91	0.887700	0.406800	0.574100
C921	C92	0.052300	0.220300	0.622300
C931	C93	0.043500	0.192800	0.654300
C941	C94	0.081100	0.147900	0.668500
C951	C95	0.131800	0.129400	0.649600
C961	C96	0.137600	0.153500	0.616000
C971	C97	0.098400	0.197800	0.602700
C981	C98	0.170600	0.081800	0.664300
C991	C99	0.634000	0.632400	0.612600
C1001	C100	0.582700	0.646400	0.594900
C1011	C101	0.544800	0.691500	0.605900
C1021	C102	0.559700	0.725300	0.638100
C1031	C103	0.610700	0.706600	0.657000
C1041	C104	0.647500	0.663100	0.644400
C1051	C105	0.676300	0.587600	0.596700
C1061	C106	0.518900	0.776300	0.649000
C1071	C107	0.493800	0.815100	0.623500
C1081	C108	0.455700	0.859100	0.632100
C1091	C109	0.439200	0.867700	0.668700
C1101	C110	0.466400	0.832400	0.695100
C1111	C111	0.505100	0.786500	0.685800
C1121	C112	0.396800	0.916400	0.679000
C1131	C113	0.744700	0.379900	0.433800
C1141	C114	0.795500	0.351300	0.419900
C1151	C115	0.790800	0.311200	0.391300
C1161	C116	0.735500	0.298700	0.376900
C1171	C117	0.684800	0.328300	0.389100
C1181	C118	0.688600	0.369200	0.417800
C1191	C119	0.752000	0.424200	0.464900
C1201	C120	0.731700	0.250600	0.348400
C1211	C121	0.777400	0.244500	0.323800
C1221	C122	0.776700	0.195700	0.298900
C1231	C123	0.728900	0.153400	0.299600
C1241	C124	0.680600	0.161900	0.323200
C1251	C125	0.682400	0.212300	0.346500
C1261	C126	0.730700	0.098400	0.275900
C1271	C127	0.069500	0.641600	0.085700
C1281	C128	0.071100	0.659800	0.120800
C1291	C129	0.032500	0.705800	0.131600
C1301	C130	0.990000	0.731300	0.109400
C1311	C131	0.992400	0.714200	0.072500
C1321	C132	0.029800	0.668800	0.061800
C1331	C133	0.112300	0.593200	0.074100
C1341	C134	0.947700	0.779700	0.122300
C1351	C135	0.956500	0.807200	0.154300
C1361	C136	0.918900	0.852100	0.168500
C1371	C137	0.868200	0.870600	0.149600
C1381	C138	0.862400	0.846500	0.116000
C1391	C139	0.901600	0.802200	0.102700
C1401	C140	0.829400	0.918200	0.164300
C1411	C141	0.366000	0.367600	0.112600
C1421	C142	0.417300	0.353600	0.094900
C1431	C143	0.455200	0.308500	0.105900
C1441	C144	0.440300	0.274700	0.138100
C1451	C145	0.389300	0.293400	0.157000
C1461	C146	0.352500	0.336900	0.144400
C1471	C147	0.323700	0.412400	0.096700
C1481	C148	0.481100	0.223700	0.149000
C1491	C149	0.506200	0.184900	0.123500
C1501	C150	0.544300	0.140900	0.132100
C1511	C151	0.560800	0.132300	0.168700
C1521	C152	0.533600	0.167600	0.195100
C1531	C153	0.494900	0.213500	0.185800
C1541	C154	0.603200	0.083600	0.179000
C1551	C155	0.255300	0.620100	0.933800
C1561	C156	0.204500	0.648700	0.919900
C1571	C157	0.209200	0.688800	0.891300
C1581	C158	0.264500	0.701300	0.876900
C1591	C159	0.315200	0.671700	0.889100
C1601	C160	0.311400	0.630800	0.917800
C1611	C161	0.248000	0.575800	0.964900
C1621	C162	0.268300	0.749400	0.848400
C1631	C163	0.222600	0.755500	0.823800
C1641	C164	0.223300	0.804300	0.798900
C1651	C165	0.271100	0.846600	0.799600
C1661	C166	0.319400	0.838100	0.823200
C1671	C167	0.317600	0.787700	0.846500
C1681	C168	0.269300	0.901600	0.775900
C1691	C169	0.641600	0.069500	0.914300
C1701	C170	0.659800	0.071100	0.879200
C1711	C171	0.705800	0.032500	0.868400
C1721	C172	0.731300	0.990000	0.890600
C1731	C173	0.714200	0.992400	0.927500
C1741	C174	0.668800	0.029800	0.938200
C1751	C175	0.593200	0.112300	0.925900
C1761	C176	0.779700	0.947700	0.877700
C1771	C177	0.807200	0.956500	0.845700
C1781	C178	0.852100	0.918900	0.831500
C1791	C179	0.870600	0.868200	0.850400
C1801	C180	0.846500	0.862400	0.884000
C1811	C181	0.802200	0.901600	0.897300
C1821	C182	0.918200	0.829400	0.835700
C1831	C183	0.367600	0.366000	0.887400
C1841	C184	0.353600	0.417300	0.905100
C1851	C185	0.308500	0.455200	0.894100
C1861	C186	0.274700	0.440300	0.861900
C1871	C187	0.293400	0.389300	0.843000
C1881	C188	0.336900	0.352500	0.855600
C1891	C189	0.412400	0.323700	0.903300
C1901	C190	0.223700	0.481100	0.851000
C1911	C191	0.184900	0.506200	0.876500
C1921	C192	0.140900	0.544300	0.867900
C1931	C193	0.132300	0.560800	0.831300
C1941	C194	0.167600	0.533600	0.804900
C1951	C195	0.213500	0.494900	0.814200
C1961	C196	0.083600	0.603200	0.821000
C1971	C197	0.620100	0.255300	0.066200
C1981	C198	0.648700	0.204500	0.080100
C1991	C199	0.688800	0.209200	0.108700
C2001	C200	0.701300	0.264500	0.123100
C2011	C201	0.671700	0.315200	0.110900
C2021	C202	0.630800	0.311400	0.082200
C2031	C203	0.575800	0.248000	0.035100
C2041	C204	0.749400	0.268300	0.151600
C2051	C205	0.755500	0.222600	0.176200
C2061	C206	0.804300	0.223300	0.201100
C2071	C207	0.846600	0.271100	0.200400
C2081	C208	0.838100	0.319400	0.176800
C2091	C209	0.787700	0.317600	0.153500
C2101	C210	0.901600	0.269300	0.224100
C2111	C211	0.358400	0.930500	0.414300
C2121	C212	0.340200	0.928900	0.379200
C2131	C213	0.294200	0.967500	0.368400
C2141	C214	0.268700	0.010000	0.390600
C2151	C215	0.285800	0.007600	0.427500
C2161	C216	0.331200	0.970200	0.438200
C2171	C217	0.406800	0.887700	0.425900
C2181	C218	0.220300	0.052300	0.377700
C2191	C219	0.192800	0.043500	0.345700
C2201	C220	0.147900	0.081100	0.331500
C2211	C221	0.129400	0.131800	0.350400
C2221	C222	0.153500	0.137600	0.384000
C2231	C223	0.197800	0.098400	0.397300
C2241	C224	0.081800	0.170600	0.335700
C2251	C225	0.632400	0.634000	0.387400
C2261	C226	0.646400	0.582700	0.405100
C2271	C227	0.691500	0.544800	0.394100
C2281	C228	0.725300	0.559700	0.361900
C2291	C229	0.706600	0.610700	0.343000
C2301	C230	0.663100	0.647500	0.355600
C2311	C231	0.587600	0.676300	0.403300
C2321	C232	0.776300	0.518900	0.351000
C2331	C233	0.815100	0.493800	0.376500
C2341	C234	0.859100	0.455700	0.367900
C2351	C235	0.867700	0.439200	0.331300
C2361	C236	0.832400	0.466400	0.304900
C2371	C237	0.786500	0.505100	0.314200
C2381	C238	0.916400	0.396800	0.321000
C2391	C239	0.379900	0.744700	0.566200
C2401	C240	0.351300	0.795500	0.580100
C2411	C241	0.311200	0.790800	0.608700
C2421	C242	0.298700	0.735500	0.623100
C2431	C243	0.328300	0.684800	0.610900
C2441	C244	0.369200	0.688600	0.582200
C2451	C245	0.424200	0.752000	0.535100
C2461	C246	0.250600	0.731700	0.651600
C2471	C247	0.244500	0.777400	0.676200
C2481	C248	0.195700	0.776700	0.701100
C2491	C249	0.153400	0.728900	0.700400
C2501	C250	0.161900	0.680600	0.676800
C2511	C251	0.212300	0.682400	0.653500
C2521	C252	0.098400	0.730700	0.724100
C2531	C253	0.569500	0.858400	0.164300
C2541	C254	0.571100	0.840200	0.129200
C2551	C255	0.532500	0.794200	0.118400
C2561	C256	0.490000	0.768700	0.140600
C2571	C257	0.492400	0.785800	0.177500
C2581	C258	0.529800	0.831200	0.188200
C2591	C259	0.612300	0.906800	0.175900
C2601	C260	0.447700	0.720300	0.127700
C2611	C261	0.456500	0.692800	0.095700
C2621	C262	0.418900	0.647900	0.081500
C2631	C263	0.368200	0.629400	0.100400
C2641	C264	0.362400	0.653500	0.134000
C2651	C265	0.401600	0.697800	0.147300
C2661	C266	0.329400	0.581800	0.085700
C2671	C267	0.866000	0.132400	0.137400
C2681	C268	0.917300	0.146400	0.155100
C2691	C269	0.955200	0.191500	0.144100
C2701	C270	0.940300	0.225300	0.111900
C2711	C271	0.889300	0.206600	0.093000
C2721	C272	0.852500	0.163100	0.105600
C2731	C273	0.823700	0.087600	0.153300
C2741	C274	0.981100	0.276300	0.101000
C2751	C275	0.006200	0.315100	0.126500
C2761	C276	0.044300	0.359100	0.117900
C2771	C277	0.060800	0.367700	0.081300
C2781	C278	0.033600	0.332400	0.054900
C2791	C279	0.994900	0.286500	0.064200
C2801	C280	0.103200	0.416400	0.071000
C2811	C281	0.755300	0.879900	0.316200
C2821	C282	0.704500	0.851300	0.330100
C2831	C283	0.709200	0.811200	0.358700
C2841	C284	0.764500	0.798700	0.373100
C2851	C285	0.815200	0.828300	0.360900
C2861	C286	0.811400	0.869200	0.332200
C2871	C287	0.748000	0.924200	0.285100
C2881	C288	0.768300	0.750600	0.401600
C2891	C289	0.722600	0.744500	0.426200
C2901	C290	0.723300	0.695700	0.451100
C2911	C291	0.771100	0.653400	0.450400
C2921	C292	0.819400	0.661900	0.426800
C2931	C293	0.817600	0.712300	0.403500
C2941	C294	0.769300	0.598400	0.474100
C2951	C295	0.430500	0.141600	0.664300
C2961	C296	0.428900	0.159800	0.629200
C2971	C297	0.467500	0.205800	0.618400
C2981	C298	0.510000	0.231300	0.640600
C2991	C299	0.507600	0.214200	0.677500
C3001	C300	0.470200	0.168800	0.688200
C3011	C301	0.387700	0.093200	0.675900
C3021	C302	0.552300	0.279700	0.627700
C3031	C303	0.543500	0.307200	0.595700
C3041	C304	0.581100	0.352100	0.581500
C3051	C305	0.631800	0.370600	0.600400
C3061	C306	0.637600	0.346500	0.634000
C3071	C307	0.598400	0.302200	0.647300
C3081	C308	0.670600	0.418200	0.585700
C3091	C309	0.134000	0.867600	0.637400
C3101	C310	0.082700	0.853600	0.655100
C3111	C311	0.044800	0.808500	0.644100
C3121	C312	0.059700	0.774700	0.611900
C3131	C313	0.110700	0.793400	0.593000
C3141	C314	0.147500	0.836900	0.605600
C3151	C315	0.176300	0.912400	0.653300
C3161	C316	0.018900	0.723700	0.601000
C3171	C317	0.993800	0.684900	0.626500
C3181	C318	0.955700	0.640900	0.617900
C3191	C319	0.939200	0.632300	0.581300
C3201	C320	0.966400	0.667600	0.554900
C3211	C321	0.005100	0.713500	0.564200
C3221	C322	0.896800	0.583600	0.571000
C3231	C323	0.244700	0.120100	0.816200
C3241	C324	0.295500	0.148700	0.830100
C3251	C325	0.290800	0.188800	0.858700
C3261	C326	0.235500	0.201300	0.873100
C3271	C327	0.184800	0.171700	0.860900
C3281	C328	0.188600	0.130800	0.832200
C3291	C329	0.252000	0.075800	0.785100
C3301	C330	0.231700	0.249400	0.901600
C3311	C331	0.277400	0.255500	0.926200
C3321	C332	0.276700	0.304300	0.951100
C3331	C333	0.228900	0.346600	0.950400
C3341	C334	0.180600	0.338100	0.926800
C3351	C335	0.182400	0.287700	0.903500
C3361	C336	0.230700	0.401600	0.974100
C3371	C337	0.414700	0.414700	0.000000
C3381	C338	0.585300	0.585300	0.500000
C3391	C339	0.085300	0.914700	0.750000
C3401	C340	0.914700	0.085300	0.250000
O11	O1	0.924900	0.606800	0.791800
O21	O2	0.925500	0.648800	0.846800
O31	O3	0.562700	0.287900	0.893600
O41	O4	0.565000	0.340600	0.946500
O51	O5	0.073400	0.775800	0.862700
O61	O6	0.066200	0.839000	0.816160
O71	O7	0.435500	0.101000	0.960900
O81	O8	0.436200	0.136900	0.904800
O91	O9	0.950500	0.795100	0.725750
O101	O10	0.929500	0.696200	0.727400
O111	O11	0.588900	0.720700	0.508280
O121	O12	0.564700	0.814500	0.526100
O131	O13	0.473800	0.398100	0.997800
O141	O14	0.001800	0.724000	0.794500
O151	O15	0.075100	0.393200	0.291800
O161	O16	0.074500	0.351200	0.346800
O171	O17	0.437300	0.712100	0.393600
O181	O18	0.435000	0.659400	0.446500
O191	O19	0.926600	0.224200	0.362700
O201	O20	0.933800	0.161000	0.316160
O211	O21	0.564500	0.899000	0.460900
O221	O22	0.563800	0.863100	0.404800
O231	O23	0.049500	0.204900	0.225750
O241	O24	0.070500	0.303800	0.227400
O251	O25	0.411100	0.279300	0.008280
O261	O26	0.435300	0.185500	0.026100
O271	O27	0.526200	0.601900	0.497800
O281	O28	0.998200	0.276000	0.294500
O291	O29	0.893200	0.424900	0.541800
O301	O30	0.851200	0.425500	0.596800
O311	O31	0.212100	0.062700	0.643600
O321	O32	0.159400	0.065000	0.696500
O331	O33	0.724200	0.573400	0.612700
O341	O34	0.661000	0.566200	0.566160
O351	O35	0.399000	0.935500	0.710900
O361	O36	0.363100	0.936200	0.654800
O371	O37	0.704900	0.450500	0.475750
O381	O38	0.803800	0.429500	0.477400
O391	O39	0.779300	0.088900	0.258280
O401	O40	0.685500	0.064700	0.276100
O411	O41	0.101900	0.973800	0.747800
O421	O42	0.776000	0.501800	0.544500
O431	O43	0.106800	0.575100	0.041800
O441	O44	0.148800	0.574500	0.096800
O451	O45	0.787900	0.937300	0.143600
O461	O46	0.840600	0.935000	0.196500
O471	O47	0.275800	0.426600	0.112700
O481	O48	0.339000	0.433800	0.066160
O491	O49	0.601000	0.064500	0.210900
O501	O50	0.636900	0.063800	0.154800
O511	O51	0.295100	0.549500	0.975750
O521	O52	0.196200	0.570500	0.977400
O531	O53	0.220700	0.911100	0.758280
O541	O54	0.314500	0.935300	0.776100
O551	O55	0.898100	0.026200	0.247800
O561	O56	0.224000	0.498200	0.044500
O571	O57	0.575100	0.106800	0.958200
O581	O58	0.574500	0.148800	0.903200
O591	O59	0.937300	0.787900	0.856400
O601	O60	0.935000	0.840600	0.803500
O611	O61	0.426600	0.275800	0.887300
O621	O62	0.433800	0.339000	0.933840
O631	O63	0.064500	0.601000	0.789100
O641	O64	0.063800	0.636900	0.845200
O651	O65	0.549500	0.295100	0.024250
O661	O66	0.570500	0.196200	0.022600
O671	O67	0.911100	0.220700	0.241720
O681	O68	0.935300	0.314500	0.223900
O691	O69	0.026200	0.898100	0.752200
O701	O70	0.498200	0.224000	0.955500
O711	O71	0.424900	0.893200	0.458200
O721	O72	0.425500	0.851200	0.403200
O731	O73	0.062700	0.212100	0.356400
O741	O74	0.065000	0.159400	0.303500
O751	O75	0.573400	0.724200	0.387300
O761	O76	0.566200	0.661000	0.433840
O771	O77	0.935500	0.399000	0.289100
O781	O78	0.936200	0.363100	0.345200
O791	O79	0.450500	0.704900	0.524250
O801	O80	0.429500	0.803800	0.522600
O811	O81	0.088900	0.779300	0.741720
O821	O82	0.064700	0.685500	0.723900
O831	O83	0.973800	0.101900	0.252200
O841	O84	0.501800	0.776000	0.455500
O851	O85	0.606800	0.924900	0.208200
O861	O86	0.648800	0.925500	0.153200
O871	O87	0.287900	0.562700	0.106400
O881	O88	0.340600	0.565000	0.053500
O891	O89	0.775800	0.073400	0.137300
O901	O90	0.839000	0.066200	0.183840
O911	O91	0.101000	0.435500	0.039100
O921	O92	0.136900	0.436200	0.095200
O931	O93	0.795100	0.950500	0.274250
O941	O94	0.696200	0.929500	0.272600
O951	O95	0.720700	0.588900	0.491720
O961	O96	0.814500	0.564700	0.473900
O971	O97	0.398100	0.473800	0.002200
O981	O98	0.724000	0.001800	0.205500
O991	O99	0.393200	0.075100	0.708200
O1001	O100	0.351200	0.074500	0.653200
O1011	O101	0.712100	0.437300	0.606400
O1021	O102	0.659400	0.435000	0.553500
O1031	O103	0.224200	0.926600	0.637300
O1041	O104	0.161000	0.933800	0.683840
O1051	O105	0.899000	0.564500	0.539100
O1061	O106	0.863100	0.563800	0.595200
O1071	O107	0.204900	0.049500	0.774250
O1081	O108	0.303800	0.070500	0.772600
O1091	O109	0.279300	0.411100	0.991720
O1101	O110	0.185500	0.435300	0.973900
O1111	O111	0.601900	0.526200	0.502200
O1121	O112	0.276000	0.998200	0.705500
