data_WAQKUX_clean_PM
_symmetry_space_group_name_H-M	'P1'
_cell_length_a	24.793500
_cell_length_b	33.563100
_cell_length_c	18.666900
_cell_angle_alpha	90.000000
_cell_angle_beta	90.000000
_cell_angle_gamma	90.000000
_symmetry_Int_Tables_number 1

loop_
_symmetry_equiv_pos_as_xyz
'x,y,z'

loop_
_atom_site_label
_atom_site_type_symbol
_atom_site_fract_x
_atom_site_fract_y
_atom_site_fract_z
Cu11	Cu1	0.210130	0.267530	0.535330
O11	O1	0.182460	0.213370	0.545000
O21	O2	0.254800	0.257740	0.619600
O31	O3	0.177820	0.272030	0.439400
O41	O4	0.250620	0.316330	0.515200
C11	C1	0.206600	0.183260	0.522200
C21	C2	0.298900	0.239530	0.616500
C31	C3	0.183800	0.142850	0.539700
C41	C4	0.326200	0.229920	0.685400
C51	C5	0.211000	0.108750	0.518700
C61	C6	0.139100	0.140850	0.583800
C71	C7	0.375000	0.208900	0.685900
H11	H1	0.242100	0.110600	0.491000
C81	C8	0.191000	0.071350	0.539800
H21	H2	0.122100	0.164100	0.598800
C91	C9	0.119700	0.104290	0.605600
H31	H3	0.391000	0.201900	0.642600
C101	C10	0.220700	0.034410	0.518900
C111	C11	0.146400	0.069530	0.583100
C121	C12	0.072900	0.103100	0.657500
C131	C13	0.277600	0.033700	0.519500
H41	H4	0.133500	0.044800	0.597800
O51	O5	0.056080	0.069150	0.675800
O61	O6	0.054720	0.135620	0.675900
C141	C14	0.452000	0.136500	0.702900
H51	H5	0.296900	0.056300	0.533000
H61	H6	0.415800	0.131200	0.684000
Cu21	Cu2	0.710130	0.767530	0.535330
O71	O7	0.682460	0.713370	0.545000
O81	O8	0.754800	0.757740	0.619600
O91	O9	0.677820	0.772030	0.439400
O101	O10	0.750620	0.816330	0.515200
C151	C15	0.706600	0.683260	0.522200
C161	C16	0.798900	0.739530	0.616500
C171	C17	0.683800	0.642850	0.539700
C181	C18	0.826200	0.729920	0.685400
C191	C19	0.711000	0.608750	0.518700
C201	C20	0.639100	0.640850	0.583800
C211	C21	0.875000	0.708900	0.685900
H71	H7	0.742100	0.610600	0.491000
C221	C22	0.691000	0.571350	0.539800
H81	H8	0.622100	0.664100	0.598800
C231	C23	0.619700	0.604290	0.605600
H91	H9	0.891000	0.701900	0.642600
C241	C24	0.720700	0.534410	0.518900
C251	C25	0.646400	0.569530	0.583100
C261	C26	0.572900	0.603100	0.657500
C271	C27	0.777600	0.533700	0.519500
H101	H10	0.633500	0.544800	0.597800
O111	O11	0.556080	0.569150	0.675800
O121	O12	0.554720	0.635620	0.675900
C281	C28	0.952000	0.636500	0.702900
H111	H11	0.796900	0.556300	0.533000
H121	H12	0.915800	0.631200	0.684000
Cu31	Cu3	0.789870	0.732470	0.035330
O131	O13	0.817540	0.786630	0.045000
O141	O14	0.745200	0.742260	0.119600
O151	O15	0.822180	0.727970	0.939400
O161	O16	0.749380	0.683670	0.015200
C291	C29	0.793400	0.816740	0.022200
C301	C30	0.701100	0.760470	0.116500
C311	C31	0.816200	0.857150	0.039700
C321	C32	0.673800	0.770080	0.185400
C331	C33	0.789000	0.891250	0.018700
C341	C34	0.860900	0.859150	0.083800
C351	C35	0.625000	0.791100	0.185900
H131	H13	0.757900	0.889400	0.991000
C361	C36	0.809000	0.928650	0.039800
H141	H14	0.877900	0.835900	0.098800
C371	C37	0.880300	0.895710	0.105600
H151	H15	0.609000	0.798100	0.142600
C381	C38	0.779300	0.965590	0.018900
C391	C39	0.853600	0.930470	0.083100
C401	C40	0.927100	0.896900	0.157500
C411	C41	0.722400	0.966300	0.019500
H161	H16	0.866500	0.955200	0.097800
O171	O17	0.943920	0.930850	0.175800
O181	O18	0.945280	0.864380	0.175900
C421	C42	0.548000	0.863500	0.202900
H171	H17	0.703100	0.943700	0.033000
H181	H18	0.584200	0.868800	0.184000
Cu41	Cu4	0.289870	0.232470	0.035330
O191	O19	0.317540	0.286630	0.045000
O201	O20	0.245200	0.242260	0.119600
O211	O21	0.322180	0.227970	0.939400
O221	O22	0.249380	0.183670	0.015200
C431	C43	0.293400	0.316740	0.022200
C441	C44	0.201100	0.260470	0.116500
C451	C45	0.316200	0.357150	0.039700
C461	C46	0.173800	0.270080	0.185400
C471	C47	0.289000	0.391250	0.018700
C481	C48	0.360900	0.359150	0.083800
C491	C49	0.125000	0.291100	0.185900
H191	H19	0.257900	0.389400	0.991000
C501	C50	0.309000	0.428650	0.039800
H201	H20	0.377900	0.335900	0.098800
C511	C51	0.380300	0.395710	0.105600
H211	H21	0.109000	0.298100	0.142600
C521	C52	0.279300	0.465590	0.018900
C531	C53	0.353600	0.430470	0.083100
C541	C54	0.427100	0.396900	0.157500
C551	C55	0.222400	0.466300	0.019500
H221	H22	0.366500	0.455200	0.097800
O231	O23	0.443920	0.430850	0.175800
O241	O24	0.445280	0.364380	0.175900
C561	C56	0.048000	0.363500	0.202900
H231	H23	0.203100	0.443700	0.033000
H241	H24	0.084200	0.368800	0.184000
Cu51	Cu5	0.789870	0.267530	0.964670
O251	O25	0.817540	0.213370	0.955000
O261	O26	0.745200	0.257740	0.880400
O271	O27	0.822180	0.272030	0.060600
O281	O28	0.749380	0.316330	0.984800
C571	C57	0.793400	0.183260	0.977800
C581	C58	0.701100	0.239530	0.883500
C591	C59	0.816200	0.142850	0.960300
C601	C60	0.673800	0.229920	0.814600
C611	C61	0.789000	0.108750	0.981300
C621	C62	0.860900	0.140850	0.916200
C631	C63	0.625000	0.208900	0.814100
H251	H25	0.757900	0.110600	0.009000
C641	C64	0.809000	0.071350	0.960200
H261	H26	0.877900	0.164100	0.901200
C651	C65	0.880300	0.104290	0.894400
H271	H27	0.609000	0.201900	0.857400
C661	C66	0.779300	0.034410	0.981100
C671	C67	0.853600	0.069530	0.916900
C681	C68	0.927100	0.103100	0.842500
C691	C69	0.722400	0.033700	0.980500
H281	H28	0.866500	0.044800	0.902200
O291	O29	0.943920	0.069150	0.824200
O301	O30	0.945280	0.135620	0.824100
C701	C70	0.548000	0.136500	0.797100
H291	H29	0.703100	0.056300	0.967000
H301	H30	0.584200	0.131200	0.816000
Cu61	Cu6	0.289870	0.767530	0.964670
O311	O31	0.317540	0.713370	0.955000
O321	O32	0.245200	0.757740	0.880400
O331	O33	0.322180	0.772030	0.060600
O341	O34	0.249380	0.816330	0.984800
C711	C71	0.293400	0.683260	0.977800
C721	C72	0.201100	0.739530	0.883500
C731	C73	0.316200	0.642850	0.960300
C741	C74	0.173800	0.729920	0.814600
C751	C75	0.289000	0.608750	0.981300
C761	C76	0.360900	0.640850	0.916200
C771	C77	0.125000	0.708900	0.814100
H311	H31	0.257900	0.610600	0.009000
C781	C78	0.309000	0.571350	0.960200
H321	H32	0.377900	0.664100	0.901200
C791	C79	0.380300	0.604290	0.894400
H331	H33	0.109000	0.701900	0.857400
C801	C80	0.279300	0.534410	0.981100
C811	C81	0.353600	0.569530	0.916900
C821	C82	0.427100	0.603100	0.842500
C831	C83	0.222400	0.533700	0.980500
H341	H34	0.366500	0.544800	0.902200
O351	O35	0.443920	0.569150	0.824200
O361	O36	0.445280	0.635620	0.824100
C841	C84	0.048000	0.636500	0.797100
H351	H35	0.203100	0.556300	0.967000
H361	H36	0.084200	0.631200	0.816000
Cu71	Cu7	0.210130	0.732470	0.464670
O371	O37	0.182460	0.786630	0.455000
O381	O38	0.254800	0.742260	0.380400
O391	O39	0.177820	0.727970	0.560600
O401	O40	0.250620	0.683670	0.484800
C851	C85	0.206600	0.816740	0.477800
C861	C86	0.298900	0.760470	0.383500
C871	C87	0.183800	0.857150	0.460300
C881	C88	0.326200	0.770080	0.314600
C891	C89	0.211000	0.891250	0.481300
C901	C90	0.139100	0.859150	0.416200
C911	C91	0.375000	0.791100	0.314100
H371	H37	0.242100	0.889400	0.509000
C921	C92	0.191000	0.928650	0.460200
H381	H38	0.122100	0.835900	0.401200
C931	C93	0.119700	0.895710	0.394400
H391	H39	0.391000	0.798100	0.357400
C941	C94	0.220700	0.965590	0.481100
C951	C95	0.146400	0.930470	0.416900
C961	C96	0.072900	0.896900	0.342500
C971	C97	0.277600	0.966300	0.480500
H401	H40	0.133500	0.955200	0.402200
O411	O41	0.056080	0.930850	0.324200
O421	O42	0.054720	0.864380	0.324100
C981	C98	0.452000	0.863500	0.297100
H411	H41	0.296900	0.943700	0.467000
H421	H42	0.415800	0.868800	0.316000
Cu81	Cu8	0.710130	0.232470	0.464670
O431	O43	0.682460	0.286630	0.455000
O441	O44	0.754800	0.242260	0.380400
O451	O45	0.677820	0.227970	0.560600
O461	O46	0.750620	0.183670	0.484800
C991	C99	0.706600	0.316740	0.477800
C1001	C100	0.798900	0.260470	0.383500
C1011	C101	0.683800	0.357150	0.460300
C1021	C102	0.826200	0.270080	0.314600
C1031	C103	0.711000	0.391250	0.481300
C1041	C104	0.639100	0.359150	0.416200
C1051	C105	0.875000	0.291100	0.314100
H431	H43	0.742100	0.389400	0.509000
C1061	C106	0.691000	0.428650	0.460200
H441	H44	0.622100	0.335900	0.401200
C1071	C107	0.619700	0.395710	0.394400
H451	H45	0.891000	0.298100	0.357400
C1081	C108	0.720700	0.465590	0.481100
C1091	C109	0.646400	0.430470	0.416900
C1101	C110	0.572900	0.396900	0.342500
C1111	C111	0.777600	0.466300	0.480500
H461	H46	0.633500	0.455200	0.402200
O471	O47	0.556080	0.430850	0.324200
O481	O48	0.554720	0.364380	0.324100
C1121	C112	0.952000	0.363500	0.297100
H471	H47	0.796900	0.443700	0.467000
H481	H48	0.915800	0.368800	0.316000
Cu91	Cu9	0.789870	0.732470	0.464670
O491	O49	0.817540	0.786630	0.455000
O501	O50	0.745200	0.742260	0.380400
O511	O51	0.822180	0.727970	0.560600
O521	O52	0.749380	0.683670	0.484800
C1131	C113	0.793400	0.816740	0.477800
C1141	C114	0.701100	0.760470	0.383500
C1151	C115	0.816200	0.857150	0.460300
C1161	C116	0.673800	0.770080	0.314600
C1171	C117	0.789000	0.891250	0.481300
C1181	C118	0.860900	0.859150	0.416200
C1191	C119	0.625000	0.791100	0.314100
H491	H49	0.757900	0.889400	0.509000
C1201	C120	0.809000	0.928650	0.460200
H501	H50	0.877900	0.835900	0.401200
C1211	C121	0.880300	0.895710	0.394400
H511	H51	0.609000	0.798100	0.357400
C1221	C122	0.779300	0.965590	0.481100
C1231	C123	0.853600	0.930470	0.416900
C1241	C124	0.927100	0.896900	0.342500
C1251	C125	0.722400	0.966300	0.480500
H521	H52	0.866500	0.955200	0.402200
O531	O53	0.943920	0.930850	0.324200
O541	O54	0.945280	0.864380	0.324100
C1261	C126	0.548000	0.863500	0.297100
H531	H53	0.703100	0.943700	0.467000
H541	H54	0.584200	0.868800	0.316000
Cu101	Cu10	0.289870	0.232470	0.464670
O551	O55	0.317540	0.286630	0.455000
O561	O56	0.245200	0.242260	0.380400
O571	O57	0.322180	0.227970	0.560600
O581	O58	0.249380	0.183670	0.484800
C1271	C127	0.293400	0.316740	0.477800
C1281	C128	0.201100	0.260470	0.383500
C1291	C129	0.316200	0.357150	0.460300
C1301	C130	0.173800	0.270080	0.314600
C1311	C131	0.289000	0.391250	0.481300
C1321	C132	0.360900	0.359150	0.416200
C1331	C133	0.125000	0.291100	0.314100
H551	H55	0.257900	0.389400	0.509000
C1341	C134	0.309000	0.428650	0.460200
H561	H56	0.377900	0.335900	0.401200
C1351	C135	0.380300	0.395710	0.394400
H571	H57	0.109000	0.298100	0.357400
C1361	C136	0.279300	0.465590	0.481100
C1371	C137	0.353600	0.430470	0.416900
C1381	C138	0.427100	0.396900	0.342500
C1391	C139	0.222400	0.466300	0.480500
H581	H58	0.366500	0.455200	0.402200
O591	O59	0.443920	0.430850	0.324200
O601	O60	0.445280	0.364380	0.324100
C1401	C140	0.048000	0.363500	0.297100
H591	H59	0.203100	0.443700	0.467000
H601	H60	0.084200	0.368800	0.316000
Cu111	Cu11	0.210130	0.267530	0.964670
O611	O61	0.182460	0.213370	0.955000
O621	O62	0.254800	0.257740	0.880400
O631	O63	0.177820	0.272030	0.060600
O641	O64	0.250620	0.316330	0.984800
C1411	C141	0.206600	0.183260	0.977800
C1421	C142	0.298900	0.239530	0.883500
C1431	C143	0.183800	0.142850	0.960300
C1441	C144	0.326200	0.229920	0.814600
C1451	C145	0.211000	0.108750	0.981300
C1461	C146	0.139100	0.140850	0.916200
C1471	C147	0.375000	0.208900	0.814100
H611	H61	0.242100	0.110600	0.009000
C1481	C148	0.191000	0.071350	0.960200
H621	H62	0.122100	0.164100	0.901200
C1491	C149	0.119700	0.104290	0.894400
H631	H63	0.391000	0.201900	0.857400
C1501	C150	0.220700	0.034410	0.981100
C1511	C151	0.146400	0.069530	0.916900
C1521	C152	0.072900	0.103100	0.842500
C1531	C153	0.277600	0.033700	0.980500
H641	H64	0.133500	0.044800	0.902200
O651	O65	0.056080	0.069150	0.824200
O661	O66	0.054720	0.135620	0.824100
C1541	C154	0.452000	0.136500	0.797100
H651	H65	0.296900	0.056300	0.967000
H661	H66	0.415800	0.131200	0.816000
Cu121	Cu12	0.710130	0.767530	0.964670
O671	O67	0.682460	0.713370	0.955000
O681	O68	0.754800	0.757740	0.880400
O691	O69	0.677820	0.772030	0.060600
O701	O70	0.750620	0.816330	0.984800
C1551	C155	0.706600	0.683260	0.977800
C1561	C156	0.798900	0.739530	0.883500
C1571	C157	0.683800	0.642850	0.960300
C1581	C158	0.826200	0.729920	0.814600
C1591	C159	0.711000	0.608750	0.981300
C1601	C160	0.639100	0.640850	0.916200
C1611	C161	0.875000	0.708900	0.814100
H671	H67	0.742100	0.610600	0.009000
C1621	C162	0.691000	0.571350	0.960200
H681	H68	0.622100	0.664100	0.901200
C1631	C163	0.619700	0.604290	0.894400
H691	H69	0.891000	0.701900	0.857400
C1641	C164	0.720700	0.534410	0.981100
C1651	C165	0.646400	0.569530	0.916900
C1661	C166	0.572900	0.603100	0.842500
C1671	C167	0.777600	0.533700	0.980500
H701	H70	0.633500	0.544800	0.902200
O711	O71	0.556080	0.569150	0.824200
O721	O72	0.554720	0.635620	0.824100
C1681	C168	0.952000	0.636500	0.797100
H711	H71	0.796900	0.556300	0.967000
H721	H72	0.915800	0.631200	0.816000
Cu131	Cu13	0.210130	0.732470	0.035330
O731	O73	0.182460	0.786630	0.045000
O741	O74	0.254800	0.742260	0.119600
O751	O75	0.177820	0.727970	0.939400
O761	O76	0.250620	0.683670	0.015200
C1691	C169	0.206600	0.816740	0.022200
C1701	C170	0.298900	0.760470	0.116500
C1711	C171	0.183800	0.857150	0.039700
C1721	C172	0.326200	0.770080	0.185400
C1731	C173	0.211000	0.891250	0.018700
C1741	C174	0.139100	0.859150	0.083800
C1751	C175	0.375000	0.791100	0.185900
H731	H73	0.242100	0.889400	0.991000
C1761	C176	0.191000	0.928650	0.039800
H741	H74	0.122100	0.835900	0.098800
C1771	C177	0.119700	0.895710	0.105600
H751	H75	0.391000	0.798100	0.142600
C1781	C178	0.220700	0.965590	0.018900
C1791	C179	0.146400	0.930470	0.083100
C1801	C180	0.072900	0.896900	0.157500
C1811	C181	0.277600	0.966300	0.019500
H761	H76	0.133500	0.955200	0.097800
O771	O77	0.056080	0.930850	0.175800
O781	O78	0.054720	0.864380	0.175900
C1821	C182	0.452000	0.863500	0.202900
H771	H77	0.296900	0.943700	0.033000
H781	H78	0.415800	0.868800	0.184000
Cu141	Cu14	0.710130	0.232470	0.035330
O791	O79	0.682460	0.286630	0.045000
O801	O80	0.754800	0.242260	0.119600
O811	O81	0.677820	0.227970	0.939400
O821	O82	0.750620	0.183670	0.015200
C1831	C183	0.706600	0.316740	0.022200
C1841	C184	0.798900	0.260470	0.116500
C1851	C185	0.683800	0.357150	0.039700
C1861	C186	0.826200	0.270080	0.185400
C1871	C187	0.711000	0.391250	0.018700
C1881	C188	0.639100	0.359150	0.083800
C1891	C189	0.875000	0.291100	0.185900
H791	H79	0.742100	0.389400	0.991000
C1901	C190	0.691000	0.428650	0.039800
H801	H80	0.622100	0.335900	0.098800
C1911	C191	0.619700	0.395710	0.105600
H811	H81	0.891000	0.298100	0.142600
C1921	C192	0.720700	0.465590	0.018900
C1931	C193	0.646400	0.430470	0.083100
C1941	C194	0.572900	0.396900	0.157500
C1951	C195	0.777600	0.466300	0.019500
H821	H82	0.633500	0.455200	0.097800
O831	O83	0.556080	0.430850	0.175800
O841	O84	0.554720	0.364380	0.175900
C1961	C196	0.952000	0.363500	0.202900
H831	H83	0.796900	0.443700	0.033000
H841	H84	0.915800	0.368800	0.184000
Cu151	Cu15	0.789870	0.267530	0.535330
O851	O85	0.817540	0.213370	0.545000
O861	O86	0.745200	0.257740	0.619600
O871	O87	0.822180	0.272030	0.439400
O881	O88	0.749380	0.316330	0.515200
C1971	C197	0.793400	0.183260	0.522200
C1981	C198	0.701100	0.239530	0.616500
C1991	C199	0.816200	0.142850	0.539700
C2001	C200	0.673800	0.229920	0.685400
C2011	C201	0.789000	0.108750	0.518700
C2021	C202	0.860900	0.140850	0.583800
C2031	C203	0.625000	0.208900	0.685900
H851	H85	0.757900	0.110600	0.491000
C2041	C204	0.809000	0.071350	0.539800
H861	H86	0.877900	0.164100	0.598800
C2051	C205	0.880300	0.104290	0.605600
H871	H87	0.609000	0.201900	0.642600
C2061	C206	0.779300	0.034410	0.518900
C2071	C207	0.853600	0.069530	0.583100
C2081	C208	0.927100	0.103100	0.657500
C2091	C209	0.722400	0.033700	0.519500
H881	H88	0.866500	0.044800	0.597800
O891	O89	0.943920	0.069150	0.675800
O901	O90	0.945280	0.135620	0.675900
C2101	C210	0.548000	0.136500	0.702900
H891	H89	0.703100	0.056300	0.533000
H901	H90	0.584200	0.131200	0.684000
Cu161	Cu16	0.289870	0.767530	0.535330
O911	O91	0.317540	0.713370	0.545000
O921	O92	0.245200	0.757740	0.619600
O931	O93	0.322180	0.772030	0.439400
O941	O94	0.249380	0.816330	0.515200
C2111	C211	0.293400	0.683260	0.522200
C2121	C212	0.201100	0.739530	0.616500
C2131	C213	0.316200	0.642850	0.539700
C2141	C214	0.173800	0.729920	0.685400
C2151	C215	0.289000	0.608750	0.518700
C2161	C216	0.360900	0.640850	0.583800
C2171	C217	0.125000	0.708900	0.685900
H911	H91	0.257900	0.610600	0.491000
C2181	C218	0.309000	0.571350	0.539800
H921	H92	0.377900	0.664100	0.598800
C2191	C219	0.380300	0.604290	0.605600
H931	H93	0.109000	0.701900	0.642600
C2201	C220	0.279300	0.534410	0.518900
C2211	C221	0.353600	0.569530	0.583100
C2221	C222	0.427100	0.603100	0.657500
C2231	C223	0.222400	0.533700	0.519500
H941	H94	0.366500	0.544800	0.597800
O951	O95	0.443920	0.569150	0.675800
O961	O96	0.445280	0.635620	0.675900
C2241	C224	0.048000	0.636500	0.702900
H951	H95	0.203100	0.556300	0.533000
H961	H96	0.084200	0.631200	0.684000
C2251	C225	0.301800	0.240900	0.750000
H971	H97	0.269700	0.255200	0.750000
C2261	C226	0.400000	0.198100	0.750000
C2271	C227	0.452800	0.175400	0.750000
C2281	C228	0.801800	0.740900	0.750000
H981	H98	0.769700	0.755200	0.750000
C2291	C229	0.900000	0.698100	0.750000
C2301	C230	0.952800	0.675400	0.750000
C2311	C231	0.698200	0.759100	0.250000
H991	H99	0.730300	0.744800	0.250000
C2321	C232	0.600000	0.801900	0.250000
C2331	C233	0.547200	0.824600	0.250000
C2341	C234	0.198200	0.259100	0.250000
H1001	H100	0.230300	0.244800	0.250000
C2351	C235	0.100000	0.301900	0.250000
C2361	C236	0.047200	0.324600	0.250000
C2371	C237	0.698200	0.240900	0.750000
H1011	H101	0.730300	0.255200	0.750000
C2381	C238	0.600000	0.198100	0.750000
C2391	C239	0.547200	0.175400	0.750000
C2401	C240	0.198200	0.740900	0.750000
H1021	H102	0.230300	0.755200	0.750000
C2411	C241	0.100000	0.698100	0.750000
C2421	C242	0.047200	0.675400	0.750000
C2431	C243	0.301800	0.759100	0.250000
H1031	H103	0.269700	0.744800	0.250000
C2441	C244	0.400000	0.801900	0.250000
C2451	C245	0.452800	0.824600	0.250000
C2461	C246	0.801800	0.259100	0.250000
H1041	H104	0.769700	0.244800	0.250000
C2471	C247	0.900000	0.301900	0.250000
C2481	C248	0.952800	0.324600	0.250000
C2491	C249	0.192300	0.000000	0.500000
H1051	H105	0.154800	0.000000	0.500000
C2501	C250	0.303800	0.000000	0.500000
N11	N1	0.362600	0.000000	0.500000
C2511	C251	0.692300	0.500000	0.500000
H1061	H106	0.654800	0.500000	0.500000
C2521	C252	0.803800	0.500000	0.500000
N21	N2	0.862600	0.500000	0.500000
C2531	C253	0.807700	0.000000	0.000000
H1071	H107	0.845200	0.000000	0.000000
C2541	C254	0.696200	0.000000	0.000000
N31	N3	0.637400	0.000000	0.000000
C2551	C255	0.307700	0.500000	0.000000
H1081	H108	0.345200	0.500000	0.000000
C2561	C256	0.196200	0.500000	0.000000
N41	N4	0.137400	0.500000	0.000000
C2571	C257	0.807700	0.000000	0.500000
H1091	H109	0.845200	0.000000	0.500000
C2581	C258	0.696200	0.000000	0.500000
N51	N5	0.637400	0.000000	0.500000
C2591	C259	0.307700	0.500000	0.500000
H1101	H110	0.345200	0.500000	0.500000
C2601	C260	0.196200	0.500000	0.500000
N61	N6	0.137400	0.500000	0.500000
C2611	C261	0.192300	0.000000	0.000000
H1111	H111	0.154800	0.000000	0.000000
C2621	C262	0.303800	0.000000	0.000000
N71	N7	0.362600	0.000000	0.000000
C2631	C263	0.692300	0.500000	0.000000
H1121	H112	0.654800	0.500000	0.000000
C2641	C264	0.803800	0.500000	0.000000
N81	N8	0.862600	0.500000	0.000000
C2651	C265	0.500000	0.193700	0.750000
H1131	H113	0.500000	0.221500	0.750000
C2661	C266	0.000000	0.693700	0.750000
H1141	H114	0.000000	0.721500	0.750000
C2671	C267	0.500000	0.806300	0.250000
H1151	H115	0.500000	0.778500	0.250000
C2681	C268	0.000000	0.306300	0.250000
H1161	H116	0.000000	0.278500	0.250000
Cu171	Cu17	0.000000	0.062360	0.750000
Cu181	Cu18	0.000000	0.141320	0.750000
Cu191	Cu19	0.500000	0.562360	0.750000
Cu201	Cu20	0.500000	0.641320	0.750000
Cu211	Cu21	0.000000	0.937640	0.250000
Cu221	Cu22	0.000000	0.858680	0.250000
Cu231	Cu23	0.500000	0.437640	0.250000
Cu241	Cu24	0.500000	0.358680	0.250000
