data_WAQTEQ_clean_PM
_symmetry_space_group_name_H-M	'P1'
_cell_length_a	22.168000
_cell_length_b	22.168000
_cell_length_c	37.019000
_cell_angle_alpha	90.000000
_cell_angle_beta	90.000000
_cell_angle_gamma	120.000000
_symmetry_Int_Tables_number 1

loop_
_symmetry_equiv_pos_as_xyz
'x,y,z'

loop_
_atom_site_label
_atom_site_type_symbol
_atom_site_fract_x
_atom_site_fract_y
_atom_site_fract_z
Zn11	Zn1	0.080070	0.619900	0.953890
Zn21	Zn2	0.993750	0.555630	0.023960
O11	O1	0.659370	0.597800	0.961110
O21	O2	0.702000	0.572920	0.010170
O31	O3	0.927850	0.579790	0.000350
O41	O4	0.992660	0.626060	0.950650
O51	O5	0.921020	0.643830	0.845290
O61	O6	0.065750	0.550700	0.992530
H11	H1	0.105200	0.559600	0.006400
N11	N1	0.878570	0.686290	0.742240
N21	N2	0.839380	0.669040	0.865260
N31	N3	0.838540	0.715090	0.751980
C11	C1	0.705410	0.592980	0.977870
C21	C2	0.771110	0.610990	0.957290
C31	C3	0.778530	0.633520	0.921960
H21	H2	0.743700	0.639400	0.911400
C41	C4	0.939690	0.607260	0.969340
C51	C5	0.883090	0.618270	0.953720
C61	C6	0.823720	0.602890	0.972960
H31	H3	0.818800	0.587000	0.996600
C71	C7	0.889880	0.641960	0.917880
H41	H4	0.930300	0.653800	0.905000
C81	C8	0.837030	0.647620	0.901800
C91	C9	0.879920	0.663630	0.838670
C101	C10	0.869370	0.681330	0.802260
C111	C11	0.833360	0.712030	0.788020
H51	H5	0.809000	0.728200	0.801600
C121	C12	0.897480	0.667060	0.771900
H61	H6	0.925500	0.646900	0.772500
Zn31	Zn3	0.746740	0.953230	0.287220
Zn41	Zn4	0.660410	0.888960	0.357300
O71	O7	0.326040	0.931130	0.294440
O81	O8	0.368670	0.906250	0.343500
O91	O9	0.594520	0.913120	0.333680
O101	O10	0.659330	0.959390	0.283980
O111	O11	0.587690	0.977160	0.178620
O121	O12	0.732420	0.884030	0.325860
H71	H7	0.771870	0.892930	0.339730
N41	N4	0.545240	0.019620	0.075570
N51	N5	0.506050	0.002370	0.198590
N61	N6	0.505210	0.048420	0.085310
C131	C13	0.372080	0.926310	0.311200
C141	C14	0.437780	0.944320	0.290620
C151	C15	0.445200	0.966850	0.255290
H81	H8	0.410370	0.972730	0.244730
C161	C16	0.606360	0.940590	0.302670
C171	C17	0.549760	0.951600	0.287050
C181	C18	0.490390	0.936220	0.306290
H91	H9	0.485470	0.920330	0.329930
C191	C19	0.556550	0.975290	0.251210
H101	H10	0.596970	0.987130	0.238330
C201	C20	0.503700	0.980950	0.235130
C211	C21	0.546590	0.996960	0.172000
C221	C22	0.536040	0.014660	0.135590
C231	C23	0.500030	0.045360	0.121350
H111	H11	0.475670	0.061530	0.134930
C241	C24	0.564150	0.000390	0.105230
H121	H12	0.592170	0.980230	0.105830
Zn51	Zn5	0.413410	0.286560	0.620550
Zn61	Zn6	0.327080	0.222300	0.690630
O131	O13	0.992700	0.264470	0.627780
O141	O14	0.035330	0.239590	0.676840
O151	O15	0.261180	0.246460	0.667020
O161	O16	0.325990	0.292730	0.617320
O171	O17	0.254350	0.310500	0.511960
O181	O18	0.399080	0.217370	0.659200
H131	H13	0.438530	0.226270	0.673070
N71	N7	0.211900	0.352960	0.408910
N81	N8	0.172710	0.335710	0.531930
N91	N9	0.171870	0.381760	0.418650
C251	C25	0.038740	0.259650	0.644540
C261	C26	0.104440	0.277660	0.623960
C271	C27	0.111860	0.300190	0.588630
H141	H14	0.077030	0.306070	0.578070
C281	C28	0.273020	0.273930	0.636010
C291	C29	0.216420	0.284940	0.620390
C301	C30	0.157050	0.269560	0.639630
H151	H15	0.152130	0.253670	0.663270
C311	C31	0.223210	0.308630	0.584550
H161	H16	0.263630	0.320470	0.571670
C321	C32	0.170360	0.314290	0.568470
C331	C33	0.213250	0.330300	0.505340
C341	C34	0.202700	0.348000	0.468930
C351	C35	0.166690	0.378700	0.454690
H171	H17	0.142330	0.394870	0.468270
C361	C36	0.230810	0.333730	0.438570
H181	H18	0.258830	0.313570	0.439170
Zn71	Zn7	0.380100	0.460180	0.953890
Zn81	Zn8	0.444370	0.438120	0.023960
O191	O19	0.402200	0.061570	0.961110
O201	O20	0.427080	0.129080	0.010170
O211	O21	0.420210	0.348060	0.000350
O221	O22	0.373940	0.366600	0.950650
O231	O23	0.356170	0.277190	0.845290
O241	O24	0.449300	0.515050	0.992530
H191	H19	0.440400	0.545600	0.006400
N101	N10	0.313710	0.192280	0.742240
N111	N11	0.330960	0.170340	0.865260
N121	N12	0.284910	0.123450	0.751980
C371	C37	0.407020	0.112430	0.977870
C381	C38	0.389010	0.160120	0.957290
C391	C39	0.366480	0.145010	0.921960
H201	H20	0.360600	0.104300	0.911400
C401	C40	0.392740	0.332430	0.969340
C411	C41	0.381730	0.264820	0.953720
C421	C42	0.397110	0.220830	0.972960
H211	H21	0.413000	0.231800	0.996600
C431	C43	0.358040	0.247920	0.917880
H221	H22	0.346200	0.276500	0.905000
C441	C44	0.352380	0.189410	0.901800
C451	C45	0.336370	0.216290	0.838670
C461	C46	0.318670	0.188040	0.802260
C471	C47	0.287970	0.121330	0.788020
H231	H23	0.271800	0.080800	0.801600
C481	C48	0.332940	0.230420	0.771900
H241	H24	0.353100	0.278600	0.772500
Zn91	Zn9	0.046770	0.793510	0.287220
Zn101	Zn10	0.111040	0.771450	0.357300
O251	O25	0.068870	0.394900	0.294440
O261	O26	0.093750	0.462410	0.343500
O271	O27	0.086880	0.681390	0.333680
O281	O28	0.040610	0.699930	0.283980
O291	O29	0.022840	0.610520	0.178620
O301	O30	0.115970	0.848380	0.325860
H251	H25	0.107070	0.878930	0.339730
N131	N13	0.980380	0.525610	0.075570
N141	N14	0.997630	0.503670	0.198590
N151	N15	0.951580	0.456780	0.085310
C491	C49	0.073690	0.445760	0.311200
C501	C50	0.055680	0.493450	0.290620
C511	C51	0.033150	0.478340	0.255290
H261	H26	0.027270	0.437630	0.244730
C521	C52	0.059410	0.665760	0.302670
C531	C53	0.048400	0.598150	0.287050
C541	C54	0.063780	0.554160	0.306290
H271	H27	0.079670	0.565130	0.329930
C551	C55	0.024710	0.581250	0.251210
H281	H28	0.012870	0.609830	0.238330
C561	C56	0.019050	0.522740	0.235130
C571	C57	0.003040	0.549620	0.172000
C581	C58	0.985340	0.521370	0.135590
C591	C59	0.954640	0.454660	0.121350
H291	H29	0.938470	0.414130	0.134930
C601	C60	0.999610	0.563750	0.105230
H301	H30	0.019770	0.611930	0.105830
Zn111	Zn11	0.713440	0.126850	0.620550
Zn121	Zn12	0.777700	0.104790	0.690630
O311	O31	0.735530	0.728240	0.627780
O321	O32	0.760410	0.795750	0.676840
O331	O33	0.753540	0.014730	0.667020
O341	O34	0.707270	0.033270	0.617320
O351	O35	0.689500	0.943860	0.511960
O361	O36	0.782630	0.181720	0.659200
H311	H31	0.773730	0.212270	0.673070
N161	N16	0.647040	0.858950	0.408910
N171	N17	0.664290	0.837010	0.531930
N181	N18	0.618240	0.790120	0.418650
C611	C61	0.740350	0.779100	0.644540
C621	C62	0.722340	0.826790	0.623960
C631	C63	0.699810	0.811680	0.588630
H321	H32	0.693930	0.770970	0.578070
C641	C64	0.726070	0.999100	0.636010
C651	C65	0.715060	0.931490	0.620390
C661	C66	0.730440	0.887500	0.639630
H331	H33	0.746330	0.898470	0.663270
C671	C67	0.691370	0.914590	0.584550
H341	H34	0.679530	0.943170	0.571670
C681	C68	0.685710	0.856080	0.568470
C691	C69	0.669700	0.882960	0.505340
C701	C70	0.652000	0.854710	0.468930
C711	C71	0.621300	0.788000	0.454690
H351	H35	0.605130	0.747470	0.468270
C721	C72	0.666270	0.897090	0.438570
H361	H36	0.686430	0.945270	0.439170
Zn131	Zn13	0.539820	0.919930	0.953890
Zn141	Zn14	0.561880	0.006250	0.023960
O371	O37	0.938430	0.340630	0.961110
O381	O38	0.870920	0.298000	0.010170
O391	O39	0.651940	0.072150	0.000350
O401	O40	0.633400	0.007340	0.950650
O411	O41	0.722810	0.078980	0.845290
O421	O42	0.484950	0.934250	0.992530
H371	H37	0.454400	0.894800	0.006400
N191	N19	0.807720	0.121430	0.742240
N201	N20	0.829660	0.160620	0.865260
N211	N21	0.876550	0.161460	0.751980
C731	C73	0.887570	0.294590	0.977870
C741	C74	0.839880	0.228890	0.957290
C751	C75	0.854990	0.221470	0.921960
H381	H38	0.895700	0.256300	0.911400
C761	C76	0.667570	0.060310	0.969340
C771	C77	0.735180	0.116910	0.953720
C781	C78	0.779170	0.176280	0.972960
H391	H39	0.768200	0.181200	0.996600
C791	C79	0.752080	0.110120	0.917880
H401	H40	0.723500	0.069700	0.905000
C801	C80	0.810590	0.162970	0.901800
C811	C81	0.783710	0.120080	0.838670
C821	C82	0.811960	0.130630	0.802260
C831	C83	0.878670	0.166640	0.788020
H411	H41	0.919200	0.191000	0.801600
C841	C84	0.769580	0.102520	0.771900
H421	H42	0.721400	0.074500	0.772500
Zn151	Zn15	0.206490	0.253260	0.287220
Zn161	Zn16	0.228550	0.339590	0.357300
O431	O43	0.605100	0.673960	0.294440
O441	O44	0.537590	0.631330	0.343500
O451	O45	0.318610	0.405480	0.333680
O461	O46	0.300070	0.340670	0.283980
O471	O47	0.389480	0.412310	0.178620
O481	O48	0.151620	0.267580	0.325860
H431	H43	0.121070	0.228130	0.339730
N221	N22	0.474390	0.454760	0.075570
N231	N23	0.496330	0.493950	0.198590
N241	N24	0.543220	0.494790	0.085310
C851	C85	0.554240	0.627920	0.311200
C861	C86	0.506550	0.562220	0.290620
C871	C87	0.521660	0.554800	0.255290
H441	H44	0.562370	0.589630	0.244730
C881	C88	0.334240	0.393640	0.302670
C891	C89	0.401850	0.450240	0.287050
C901	C90	0.445840	0.509610	0.306290
H451	H45	0.434870	0.514530	0.329930
C911	C91	0.418750	0.443450	0.251210
H461	H46	0.390170	0.403030	0.238330
C921	C92	0.477260	0.496300	0.235130
C931	C93	0.450380	0.453410	0.172000
C941	C94	0.478630	0.463960	0.135590
C951	C95	0.545340	0.499970	0.121350
H471	H47	0.585870	0.524330	0.134930
C961	C96	0.436250	0.435850	0.105230
H481	H48	0.388070	0.407830	0.105830
Zn171	Zn17	0.873150	0.586590	0.620550
Zn181	Zn18	0.895210	0.672920	0.690630
O491	O49	0.271760	0.007300	0.627780
O501	O50	0.204250	0.964670	0.676840
O511	O51	0.985270	0.738820	0.667020
O521	O52	0.966730	0.674010	0.617320
O531	O53	0.056140	0.745650	0.511960
O541	O54	0.818280	0.600920	0.659200
H491	H49	0.787730	0.561470	0.673070
N251	N25	0.141050	0.788100	0.408910
N261	N26	0.162990	0.827290	0.531930
N271	N27	0.209880	0.828130	0.418650
C971	C97	0.220900	0.961260	0.644540
C981	C98	0.173210	0.895560	0.623960
C991	C99	0.188320	0.888140	0.588630
H501	H50	0.229030	0.922970	0.578070
C1001	C100	0.000900	0.726980	0.636010
C1011	C101	0.068510	0.783580	0.620390
C1021	C102	0.112500	0.842950	0.639630
H511	H51	0.101530	0.847870	0.663270
C1031	C103	0.085410	0.776790	0.584550
H521	H52	0.056830	0.736370	0.571670
C1041	C104	0.143920	0.829640	0.568470
C1051	C105	0.117040	0.786750	0.505340
C1061	C106	0.145290	0.797300	0.468930
C1071	C107	0.212000	0.833310	0.454690
H531	H53	0.252530	0.857670	0.468270
C1081	C108	0.102910	0.769190	0.438570
H541	H54	0.054730	0.741170	0.439170
Zn191	Zn19	0.919930	0.380100	0.046110
Zn201	Zn20	0.006250	0.444370	0.976040
O551	O55	0.340630	0.402200	0.038890
O561	O56	0.298000	0.427080	0.989830
O571	O57	0.072150	0.420210	0.999650
O581	O58	0.007340	0.373940	0.049350
O591	O59	0.078980	0.356170	0.154710
O601	O60	0.934250	0.449300	0.007470
H551	H55	0.894800	0.440400	0.993600
N281	N28	0.121430	0.313710	0.257760
N291	N29	0.160620	0.330960	0.134740
N301	N30	0.161460	0.284910	0.248020
C1091	C109	0.294590	0.407020	0.022130
C1101	C110	0.228890	0.389010	0.042710
C1111	C111	0.221470	0.366480	0.078040
H561	H56	0.256300	0.360600	0.088600
C1121	C112	0.060310	0.392740	0.030660
C1131	C113	0.116910	0.381730	0.046280
C1141	C114	0.176280	0.397110	0.027040
H571	H57	0.181200	0.413000	0.003400
C1151	C115	0.110120	0.358040	0.082120
H581	H58	0.069700	0.346200	0.095000
C1161	C116	0.162970	0.352380	0.098200
C1171	C117	0.120080	0.336370	0.161330
C1181	C118	0.130630	0.318670	0.197740
C1191	C119	0.166640	0.287970	0.211980
H591	H59	0.191000	0.271800	0.198400
C1201	C120	0.102520	0.332940	0.228100
H601	H60	0.074500	0.353100	0.227500
Zn211	Zn21	0.586590	0.713440	0.379450
Zn221	Zn22	0.672920	0.777700	0.309370
O611	O61	0.007300	0.735530	0.372220
O621	O62	0.964670	0.760410	0.323160
O631	O63	0.738820	0.753540	0.332980
O641	O64	0.674010	0.707270	0.382680
O651	O65	0.745650	0.689500	0.488040
O661	O66	0.600920	0.782630	0.340800
H611	H61	0.561470	0.773730	0.326930
N311	N31	0.788100	0.647040	0.591090
N321	N32	0.827290	0.664290	0.468070
N331	N33	0.828130	0.618240	0.581350
C1211	C121	0.961260	0.740350	0.355460
C1221	C122	0.895560	0.722340	0.376040
C1231	C123	0.888140	0.699810	0.411370
H621	H62	0.922970	0.693930	0.421930
C1241	C124	0.726980	0.726070	0.363990
C1251	C125	0.783580	0.715060	0.379610
C1261	C126	0.842950	0.730440	0.360370
H631	H63	0.847870	0.746330	0.336730
C1271	C127	0.776790	0.691370	0.415450
H641	H64	0.736370	0.679530	0.428330
C1281	C128	0.829640	0.685710	0.431530
C1291	C129	0.786750	0.669700	0.494660
C1301	C130	0.797300	0.652000	0.531070
C1311	C131	0.833310	0.621300	0.545310
H651	H65	0.857670	0.605130	0.531730
C1321	C132	0.769190	0.666270	0.561430
H661	H66	0.741170	0.686430	0.560830
Zn231	Zn23	0.253260	0.046770	0.712780
Zn241	Zn24	0.339590	0.111040	0.642700
O671	O67	0.673960	0.068870	0.705560
O681	O68	0.631330	0.093750	0.656500
O691	O69	0.405480	0.086880	0.666320
O701	O70	0.340670	0.040610	0.716020
O711	O71	0.412310	0.022840	0.821380
O721	O72	0.267580	0.115970	0.674140
H671	H67	0.228130	0.107070	0.660270
N341	N34	0.454760	0.980380	0.924430
N351	N35	0.493950	0.997630	0.801410
N361	N36	0.494790	0.951580	0.914690
C1331	C133	0.627920	0.073690	0.688800
C1341	C134	0.562220	0.055680	0.709380
C1351	C135	0.554800	0.033150	0.744710
H681	H68	0.589630	0.027270	0.755270
C1361	C136	0.393640	0.059410	0.697330
C1371	C137	0.450240	0.048400	0.712950
C1381	C138	0.509610	0.063780	0.693710
H691	H69	0.514530	0.079670	0.670070
C1391	C139	0.443450	0.024710	0.748790
H701	H70	0.403030	0.012870	0.761670
C1401	C140	0.496300	0.019050	0.764870
C1411	C141	0.453410	0.003040	0.828000
C1421	C142	0.463960	0.985340	0.864410
C1431	C143	0.499970	0.954640	0.878650
H711	H71	0.524330	0.938470	0.865070
C1441	C144	0.435850	0.999610	0.894770
H721	H72	0.407830	0.019770	0.894170
Zn251	Zn25	0.619900	0.539820	0.046110
Zn261	Zn26	0.555630	0.561880	0.976040
O731	O73	0.597800	0.938430	0.038890
O741	O74	0.572920	0.870920	0.989830
O751	O75	0.579790	0.651940	0.999650
O761	O76	0.626060	0.633400	0.049350
O771	O77	0.643830	0.722810	0.154710
O781	O78	0.550700	0.484950	0.007470
H731	H73	0.559600	0.454400	0.993600
N371	N37	0.686290	0.807720	0.257760
N381	N38	0.669040	0.829660	0.134740
N391	N39	0.715090	0.876550	0.248020
C1451	C145	0.592980	0.887570	0.022130
C1461	C146	0.610990	0.839880	0.042710
C1471	C147	0.633520	0.854990	0.078040
H741	H74	0.639400	0.895700	0.088600
C1481	C148	0.607260	0.667570	0.030660
C1491	C149	0.618270	0.735180	0.046280
C1501	C150	0.602890	0.779170	0.027040
H751	H75	0.587000	0.768200	0.003400
C1511	C151	0.641960	0.752080	0.082120
H761	H76	0.653800	0.723500	0.095000
C1521	C152	0.647620	0.810590	0.098200
C1531	C153	0.663630	0.783710	0.161330
C1541	C154	0.681330	0.811960	0.197740
C1551	C155	0.712030	0.878670	0.211980
H771	H77	0.728200	0.919200	0.198400
C1561	C156	0.667060	0.769580	0.228100
H781	H78	0.646900	0.721400	0.227500
Zn271	Zn27	0.286560	0.873150	0.379450
Zn281	Zn28	0.222300	0.895210	0.309370
O791	O79	0.264470	0.271760	0.372220
O801	O80	0.239590	0.204250	0.323160
O811	O81	0.246460	0.985270	0.332980
O821	O82	0.292730	0.966730	0.382680
O831	O83	0.310500	0.056140	0.488040
O841	O84	0.217370	0.818280	0.340800
H791	H79	0.226270	0.787730	0.326930
N401	N40	0.352960	0.141050	0.591090
N411	N41	0.335710	0.162990	0.468070
N421	N42	0.381760	0.209880	0.581350
C1571	C157	0.259650	0.220900	0.355460
C1581	C158	0.277660	0.173210	0.376040
C1591	C159	0.300190	0.188320	0.411370
H801	H80	0.306070	0.229030	0.421930
C1601	C160	0.273930	0.000900	0.363990
C1611	C161	0.284940	0.068510	0.379610
C1621	C162	0.269560	0.112500	0.360370
H811	H81	0.253670	0.101530	0.336730
C1631	C163	0.308630	0.085410	0.415450
H821	H82	0.320470	0.056830	0.428330
C1641	C164	0.314290	0.143920	0.431530
C1651	C165	0.330300	0.117040	0.494660
C1661	C166	0.348000	0.145290	0.531070
C1671	C167	0.378700	0.212000	0.545310
H831	H83	0.394870	0.252530	0.531730
C1681	C168	0.333730	0.102910	0.561430
H841	H84	0.313570	0.054730	0.560830
Zn291	Zn29	0.953230	0.206490	0.712780
Zn301	Zn30	0.888960	0.228550	0.642700
O851	O85	0.931130	0.605100	0.705560
O861	O86	0.906250	0.537590	0.656500
O871	O87	0.913120	0.318610	0.666320
O881	O88	0.959390	0.300070	0.716020
O891	O89	0.977160	0.389480	0.821380
O901	O90	0.884030	0.151620	0.674140
H851	H85	0.892930	0.121070	0.660270
N431	N43	0.019620	0.474390	0.924430
N441	N44	0.002370	0.496330	0.801410
N451	N45	0.048420	0.543220	0.914690
C1691	C169	0.926310	0.554240	0.688800
C1701	C170	0.944320	0.506550	0.709380
C1711	C171	0.966850	0.521660	0.744710
H861	H86	0.972730	0.562370	0.755270
C1721	C172	0.940590	0.334240	0.697330
C1731	C173	0.951600	0.401850	0.712950
C1741	C174	0.936220	0.445840	0.693710
H871	H87	0.920330	0.434870	0.670070
C1751	C175	0.975290	0.418750	0.748790
H881	H88	0.987130	0.390170	0.761670
C1761	C176	0.980950	0.477260	0.764870
C1771	C177	0.996960	0.450380	0.828000
C1781	C178	0.014660	0.478630	0.864410
C1791	C179	0.045360	0.545340	0.878650
H891	H89	0.061530	0.585870	0.865070
C1801	C180	0.000390	0.436250	0.894770
H901	H90	0.980230	0.388070	0.894170
Zn311	Zn31	0.460180	0.080070	0.046110
Zn321	Zn32	0.438120	0.993750	0.976040
O911	O91	0.061570	0.659370	0.038890
O921	O92	0.129080	0.702000	0.989830
O931	O93	0.348060	0.927850	0.999650
O941	O94	0.366600	0.992660	0.049350
O951	O95	0.277190	0.921020	0.154710
O961	O96	0.515050	0.065750	0.007470
H911	H91	0.545600	0.105200	0.993600
N461	N46	0.192280	0.878570	0.257760
N471	N47	0.170340	0.839380	0.134740
N481	N48	0.123450	0.838540	0.248020
C1811	C181	0.112430	0.705410	0.022130
C1821	C182	0.160120	0.771110	0.042710
C1831	C183	0.145010	0.778530	0.078040
H921	H92	0.104300	0.743700	0.088600
C1841	C184	0.332430	0.939690	0.030660
C1851	C185	0.264820	0.883090	0.046280
C1861	C186	0.220830	0.823720	0.027040
H931	H93	0.231800	0.818800	0.003400
C1871	C187	0.247920	0.889880	0.082120
H941	H94	0.276500	0.930300	0.095000
C1881	C188	0.189410	0.837030	0.098200
C1891	C189	0.216290	0.879920	0.161330
C1901	C190	0.188040	0.869370	0.197740
C1911	C191	0.121330	0.833360	0.211980
H951	H95	0.080800	0.809000	0.198400
C1921	C192	0.230420	0.897480	0.228100
H961	H96	0.278600	0.925500	0.227500
Zn331	Zn33	0.126850	0.413410	0.379450
Zn341	Zn34	0.104790	0.327080	0.309370
O971	O97	0.728240	0.992700	0.372220
O981	O98	0.795750	0.035330	0.323160
O991	O99	0.014730	0.261180	0.332980
O1001	O100	0.033270	0.325990	0.382680
O1011	O101	0.943860	0.254350	0.488040
O1021	O102	0.181720	0.399080	0.340800
H971	H97	0.212270	0.438530	0.326930
N491	N49	0.858950	0.211900	0.591090
N501	N50	0.837010	0.172710	0.468070
N511	N51	0.790120	0.171870	0.581350
C1931	C193	0.779100	0.038740	0.355460
C1941	C194	0.826790	0.104440	0.376040
C1951	C195	0.811680	0.111860	0.411370
H981	H98	0.770970	0.077030	0.421930
C1961	C196	0.999100	0.273020	0.363990
C1971	C197	0.931490	0.216420	0.379610
C1981	C198	0.887500	0.157050	0.360370
H991	H99	0.898470	0.152130	0.336730
C1991	C199	0.914590	0.223210	0.415450
H1001	H100	0.943170	0.263630	0.428330
C2001	C200	0.856080	0.170360	0.431530
C2011	C201	0.882960	0.213250	0.494660
C2021	C202	0.854710	0.202700	0.531070
C2031	C203	0.788000	0.166690	0.545310
H1011	H101	0.747470	0.142330	0.531730
C2041	C204	0.897090	0.230810	0.561430
H1021	H102	0.945270	0.258830	0.560830
Zn351	Zn35	0.793510	0.746740	0.712780
Zn361	Zn36	0.771450	0.660410	0.642700
O1031	O103	0.394900	0.326040	0.705560
O1041	O104	0.462410	0.368670	0.656500
O1051	O105	0.681390	0.594520	0.666320
O1061	O106	0.699930	0.659330	0.716020
O1071	O107	0.610520	0.587690	0.821380
O1081	O108	0.848380	0.732420	0.674140
H1031	H103	0.878930	0.771870	0.660270
N521	N52	0.525610	0.545240	0.924430
N531	N53	0.503670	0.506050	0.801410
N541	N54	0.456780	0.505210	0.914690
C2051	C205	0.445760	0.372080	0.688800
C2061	C206	0.493450	0.437780	0.709380
C2071	C207	0.478340	0.445200	0.744710
H1041	H104	0.437630	0.410370	0.755270
C2081	C208	0.665760	0.606360	0.697330
C2091	C209	0.598150	0.549760	0.712950
C2101	C210	0.554160	0.490390	0.693710
H1051	H105	0.565130	0.485470	0.670070
C2111	C211	0.581250	0.556550	0.748790
H1061	H106	0.609830	0.596970	0.761670
C2121	C212	0.522740	0.503700	0.764870
C2131	C213	0.549620	0.546590	0.828000
C2141	C214	0.521370	0.536040	0.864410
C2151	C215	0.454660	0.500030	0.878650
H1071	H107	0.414130	0.475670	0.865070
C2161	C216	0.563750	0.564150	0.894770
H1081	H108	0.611930	0.592170	0.894170
