data_WARJAC_clean_PM
_symmetry_space_group_name_H-M	'P1'
_cell_length_a	11.924500
_cell_length_b	11.924500
_cell_length_c	16.302000
_cell_angle_alpha	90.000000
_cell_angle_beta	90.000000
_cell_angle_gamma	120.000000
_symmetry_Int_Tables_number 1

loop_
_symmetry_equiv_pos_as_xyz
'x,y,z'

loop_
_atom_site_label
_atom_site_type_symbol
_atom_site_fract_x
_atom_site_fract_y
_atom_site_fract_z
Ni11	Ni1	0.456620	0.504880	0.858930
Ni21	Ni2	0.048260	0.543380	0.525600
Ni31	Ni3	0.495120	0.951740	0.192260
Ni41	Ni4	0.951740	0.495120	0.141070
Ni51	Ni5	0.504880	0.456620	0.474400
Ni61	Ni6	0.543380	0.048260	0.807740
Ni71	Ni7	0.373250	0.000000	0.000000
Ni81	Ni8	0.626750	0.626750	0.666670
Ni91	Ni9	0.000000	0.373250	0.333330
C11	C1	0.486100	0.286400	0.825000
C21	C2	0.393500	0.232300	0.939000
C31	C3	0.538400	0.364900	0.748100
C41	C4	0.319900	0.210700	0.017200
C51	C5	0.800300	0.513900	0.491670
C61	C6	0.838800	0.606500	0.605670
C71	C7	0.826500	0.461600	0.414770
C81	C8	0.890800	0.680100	0.683870
C91	C9	0.713600	0.199700	0.158330
C101	C10	0.767700	0.161200	0.272330
C111	C11	0.635100	0.173500	0.081430
C121	C12	0.789300	0.109200	0.350530
C131	C13	0.199700	0.713600	0.175000
C141	C14	0.161200	0.767700	0.061000
C151	C15	0.173500	0.635100	0.251900
C161	C16	0.109200	0.789300	0.982800
C171	C17	0.286400	0.486100	0.508330
C181	C18	0.232300	0.393500	0.394330
C191	C19	0.364900	0.538400	0.585230
C201	C20	0.210700	0.319900	0.316130
C211	C21	0.513900	0.800300	0.841670
C221	C22	0.606500	0.838800	0.727670
C231	C23	0.461600	0.826500	0.918570
C241	C24	0.680100	0.890800	0.649470
N11	N1	0.425500	0.145000	0.920140
N21	N2	0.427700	0.322900	0.881700
N31	N3	0.487300	0.178200	0.846300
N41	N4	0.719500	0.574500	0.586810
N51	N5	0.895200	0.572300	0.548370
N61	N6	0.690900	0.512700	0.512970
N71	N7	0.855000	0.280500	0.253470
N81	N8	0.677100	0.104800	0.215030
N91	N9	0.821800	0.309100	0.179630
N101	N10	0.280500	0.855000	0.079860
N111	N11	0.104800	0.677100	0.118300
N121	N12	0.309100	0.821800	0.153700
N131	N13	0.145000	0.425500	0.413190
N141	N14	0.322900	0.427700	0.451630
N151	N15	0.178200	0.487300	0.487030
N161	N16	0.574500	0.719500	0.746530
N171	N17	0.572300	0.895200	0.784970
N181	N18	0.512700	0.690900	0.820370
O11	O1	0.543200	0.475100	0.751370
O21	O2	0.301600	0.111000	0.056570
O31	O3	0.569700	0.322900	0.689000
O41	O4	0.280800	0.285300	0.038800
O51	O5	0.931900	0.456800	0.418040
O61	O6	0.809400	0.698400	0.723240
O71	O7	0.753200	0.430300	0.355670
O81	O8	0.004500	0.719200	0.705470
O91	O9	0.524900	0.068100	0.084700
O101	O10	0.889000	0.190600	0.389900
O111	O11	0.677100	0.246800	0.022330
O121	O12	0.714700	0.995500	0.372130
O131	O13	0.068100	0.524900	0.248630
O141	O14	0.190600	0.889000	0.943430
O151	O15	0.246800	0.677100	0.311000
O161	O16	0.995500	0.714700	0.961200
O171	O17	0.475100	0.543200	0.581960
O181	O18	0.111000	0.301600	0.276760
O191	O19	0.322900	0.569700	0.644330
O201	O20	0.285300	0.280800	0.294530
O211	O21	0.456800	0.931900	0.915300
O221	O22	0.698400	0.809400	0.610100
O231	O23	0.430300	0.753200	0.977670
O241	O24	0.719200	0.004500	0.627870
