data_WASPAK_clean_PM
_symmetry_space_group_name_H-M	'P1'
_cell_length_a	29.956000
_cell_length_b	9.733100
_cell_length_c	15.527100
_cell_angle_alpha	90.000000
_cell_angle_beta	90.000000
_cell_angle_gamma	90.000000
_symmetry_Int_Tables_number 1

loop_
_symmetry_equiv_pos_as_xyz
'x,y,z'

loop_
_atom_site_label
_atom_site_type_symbol
_atom_site_fract_x
_atom_site_fract_y
_atom_site_fract_z
S11	S1	0.052450	0.693400	0.118300
S21	S2	0.055870	0.394500	0.108900
N11	N1	0.276800	0.045200	0.136200
N21	N2	0.207200	0.197600	0.213300
C11	C1	0.023600	0.542100	0.112600
C21	C2	0.163200	0.919200	0.241200
H11	H1	0.155700	0.994100	0.275400
N31	N3	0.205600	0.906500	0.213800
C31	C3	0.104700	0.481300	0.141100
C41	C4	0.156400	0.281400	0.107500
H21	H2	0.144500	0.274000	0.052400
C51	C5	0.187800	0.192900	0.135200
H31	H3	0.196800	0.123700	0.097700
C61	C6	0.130500	0.824800	0.220300
H41	H4	0.101600	0.838500	0.240800
C71	C7	0.104000	0.616800	0.145000
C81	C8	0.139200	0.712000	0.170600
C91	C9	0.141900	0.387000	0.165100
C101	C10	0.292500	0.025500	0.069900
C111	C11	0.163700	0.396800	0.243700
H51	H5	0.157100	0.467600	0.281900
C121	C12	0.214900	0.795000	0.164700
H61	H6	0.244000	0.783700	0.145200
C131	C13	0.195300	0.299500	0.264000
H71	H7	0.209200	0.306200	0.317400
C141	C14	0.183500	0.696700	0.141700
H81	H8	0.191500	0.622000	0.107700
S31	S3	0.447550	0.306600	0.618300
S41	S4	0.444130	0.605500	0.608900
N41	N4	0.223200	0.954800	0.636200
N51	N5	0.292800	0.802400	0.713300
C151	C15	0.476400	0.457900	0.612600
C161	C16	0.336800	0.080800	0.741200
H91	H9	0.344300	0.005900	0.775400
N61	N6	0.294400	0.093500	0.713800
C171	C17	0.395300	0.518700	0.641100
C181	C18	0.343600	0.718600	0.607500
H101	H10	0.355500	0.726000	0.552400
C191	C19	0.312200	0.807100	0.635200
H111	H11	0.303200	0.876300	0.597700
C201	C20	0.369500	0.175200	0.720300
H121	H12	0.398400	0.161500	0.740800
C211	C21	0.396000	0.383200	0.645000
C221	C22	0.360800	0.288000	0.670600
C231	C23	0.358100	0.613000	0.665100
C241	C24	0.207500	0.974500	0.569900
C251	C25	0.336300	0.603200	0.743700
H131	H13	0.342900	0.532400	0.781900
C261	C26	0.285100	0.205000	0.664700
H141	H14	0.256000	0.216300	0.645200
C271	C27	0.304700	0.700500	0.764000
H151	H15	0.290800	0.693800	0.817400
C281	C28	0.316500	0.303300	0.641700
H161	H16	0.308500	0.378000	0.607700
S51	S5	0.447550	0.693400	0.381700
S61	S6	0.444130	0.394500	0.391100
N71	N7	0.223200	0.045200	0.363800
N81	N8	0.292800	0.197600	0.286700
C291	C29	0.476400	0.542100	0.387400
C301	C30	0.336800	0.919200	0.258800
H171	H17	0.344300	0.994100	0.224600
N91	N9	0.294400	0.906500	0.286200
C311	C31	0.395300	0.481300	0.358900
C321	C32	0.343600	0.281400	0.392500
H181	H18	0.355500	0.274000	0.447600
C331	C33	0.312200	0.192900	0.364800
H191	H19	0.303200	0.123700	0.402300
C341	C34	0.369500	0.824800	0.279700
H201	H20	0.398400	0.838500	0.259200
C351	C35	0.396000	0.616800	0.355000
C361	C36	0.360800	0.712000	0.329400
C371	C37	0.358100	0.387000	0.334900
C381	C38	0.207500	0.025500	0.430100
C391	C39	0.336300	0.396800	0.256300
H211	H21	0.342900	0.467600	0.218100
C401	C40	0.285100	0.795000	0.335300
H221	H22	0.256000	0.783700	0.354800
C411	C41	0.304700	0.299500	0.236000
H231	H23	0.290800	0.306200	0.182600
C421	C42	0.316500	0.696700	0.358300
H241	H24	0.308500	0.622000	0.392300
S71	S7	0.052450	0.306600	0.881700
S81	S8	0.055870	0.605500	0.891100
N101	N10	0.276800	0.954800	0.863800
N111	N11	0.207200	0.802400	0.786700
C431	C43	0.023600	0.457900	0.887400
C441	C44	0.163200	0.080800	0.758800
H251	H25	0.155700	0.005900	0.724600
N121	N12	0.205600	0.093500	0.786200
C451	C45	0.104700	0.518700	0.858900
C461	C46	0.156400	0.718600	0.892500
H261	H26	0.144500	0.726000	0.947600
C471	C47	0.187800	0.807100	0.864800
H271	H27	0.196800	0.876300	0.902300
C481	C48	0.130500	0.175200	0.779700
H281	H28	0.101600	0.161500	0.759200
C491	C49	0.104000	0.383200	0.855000
C501	C50	0.139200	0.288000	0.829400
C511	C51	0.141900	0.613000	0.834900
C521	C52	0.292500	0.974500	0.930100
C531	C53	0.163700	0.603200	0.756300
H291	H29	0.157100	0.532400	0.718100
C541	C54	0.214900	0.205000	0.835300
H301	H30	0.244000	0.216300	0.854800
C551	C55	0.195300	0.700500	0.736000
H311	H31	0.209200	0.693800	0.682600
C561	C56	0.183500	0.303300	0.858300
H321	H32	0.191500	0.378000	0.892300
S91	S9	0.947550	0.306600	0.881700
S101	S10	0.944130	0.605500	0.891100
N131	N13	0.723200	0.954800	0.863800
N141	N14	0.792800	0.802400	0.786700
C571	C57	0.976400	0.457900	0.887400
C581	C58	0.836800	0.080800	0.758800
H331	H33	0.844300	0.005900	0.724600
N151	N15	0.794400	0.093500	0.786200
C591	C59	0.895300	0.518700	0.858900
C601	C60	0.843600	0.718600	0.892500
H341	H34	0.855500	0.726000	0.947600
C611	C61	0.812200	0.807100	0.864800
H351	H35	0.803200	0.876300	0.902300
C621	C62	0.869500	0.175200	0.779700
H361	H36	0.898400	0.161500	0.759200
C631	C63	0.896000	0.383200	0.855000
C641	C64	0.860800	0.288000	0.829400
C651	C65	0.858100	0.613000	0.834900
C661	C66	0.707500	0.974500	0.930100
C671	C67	0.836300	0.603200	0.756300
H371	H37	0.842900	0.532400	0.718100
C681	C68	0.785100	0.205000	0.835300
H381	H38	0.756000	0.216300	0.854800
C691	C69	0.804700	0.700500	0.736000
H391	H39	0.790800	0.693800	0.682600
C701	C70	0.816500	0.303300	0.858300
H401	H40	0.808500	0.378000	0.892300
S111	S11	0.552450	0.693400	0.381700
S121	S12	0.555870	0.394500	0.391100
N161	N16	0.776800	0.045200	0.363800
N171	N17	0.707200	0.197600	0.286700
C711	C71	0.523600	0.542100	0.387400
C721	C72	0.663200	0.919200	0.258800
H411	H41	0.655700	0.994100	0.224600
N181	N18	0.705600	0.906500	0.286200
C731	C73	0.604700	0.481300	0.358900
C741	C74	0.656400	0.281400	0.392500
H421	H42	0.644500	0.274000	0.447600
C751	C75	0.687800	0.192900	0.364800
H431	H43	0.696800	0.123700	0.402300
C761	C76	0.630500	0.824800	0.279700
H441	H44	0.601600	0.838500	0.259200
C771	C77	0.604000	0.616800	0.355000
C781	C78	0.639200	0.712000	0.329400
C791	C79	0.641900	0.387000	0.334900
C801	C80	0.792500	0.025500	0.430100
C811	C81	0.663700	0.396800	0.256300
H451	H45	0.657100	0.467600	0.218100
C821	C82	0.714900	0.795000	0.335300
H461	H46	0.744000	0.783700	0.354800
C831	C83	0.695300	0.299500	0.236000
H471	H47	0.709200	0.306200	0.182600
C841	C84	0.683500	0.696700	0.358300
H481	H48	0.691500	0.622000	0.392300
S131	S13	0.552450	0.306600	0.618300
S141	S14	0.555870	0.605500	0.608900
N191	N19	0.776800	0.954800	0.636200
N201	N20	0.707200	0.802400	0.713300
C851	C85	0.523600	0.457900	0.612600
C861	C86	0.663200	0.080800	0.741200
H491	H49	0.655700	0.005900	0.775400
N211	N21	0.705600	0.093500	0.713800
C871	C87	0.604700	0.518700	0.641100
C881	C88	0.656400	0.718600	0.607500
H501	H50	0.644500	0.726000	0.552400
C891	C89	0.687800	0.807100	0.635200
H511	H51	0.696800	0.876300	0.597700
C901	C90	0.630500	0.175200	0.720300
H521	H52	0.601600	0.161500	0.740800
C911	C91	0.604000	0.383200	0.645000
C921	C92	0.639200	0.288000	0.670600
C931	C93	0.641900	0.613000	0.665100
C941	C94	0.792500	0.974500	0.569900
C951	C95	0.663700	0.603200	0.743700
H531	H53	0.657100	0.532400	0.781900
C961	C96	0.714900	0.205000	0.664700
H541	H54	0.744000	0.216300	0.645200
C971	C97	0.695300	0.700500	0.764000
H551	H55	0.709200	0.693800	0.817400
C981	C98	0.683500	0.303300	0.641700
H561	H56	0.691500	0.378000	0.607700
S151	S15	0.947550	0.693400	0.118300
S161	S16	0.944130	0.394500	0.108900
N221	N22	0.723200	0.045200	0.136200
N231	N23	0.792800	0.197600	0.213300
C991	C99	0.976400	0.542100	0.112600
C1001	C100	0.836800	0.919200	0.241200
H571	H57	0.844300	0.994100	0.275400
N241	N24	0.794400	0.906500	0.213800
C1011	C101	0.895300	0.481300	0.141100
C1021	C102	0.843600	0.281400	0.107500
H581	H58	0.855500	0.274000	0.052400
C1031	C103	0.812200	0.192900	0.135200
H591	H59	0.803200	0.123700	0.097700
C1041	C104	0.869500	0.824800	0.220300
H601	H60	0.898400	0.838500	0.240800
C1051	C105	0.896000	0.616800	0.145000
C1061	C106	0.860800	0.712000	0.170600
C1071	C107	0.858100	0.387000	0.165100
C1081	C108	0.707500	0.025500	0.069900
C1091	C109	0.836300	0.396800	0.243700
H611	H61	0.842900	0.467600	0.281900
C1101	C110	0.785100	0.795000	0.164700
H621	H62	0.756000	0.783700	0.145200
C1111	C111	0.804700	0.299500	0.264000
H631	H63	0.790800	0.306200	0.317400
C1121	C112	0.816500	0.696700	0.141700
H641	H64	0.808500	0.622000	0.107700
Fe11	Fe1	0.250000	0.050200	0.250000
Fe21	Fe2	0.250000	0.949800	0.750000
Fe31	Fe3	0.750000	0.949800	0.750000
Fe41	Fe4	0.750000	0.050200	0.250000
N251	N25	0.313600	0.000000	0.000000
N261	N26	0.186400	0.000000	0.500000
N271	N27	0.686400	0.000000	0.000000
N281	N28	0.813600	0.000000	0.500000
