data_WASVES_clean_PM
_symmetry_space_group_name_H-M	'P1'
_cell_length_a	12.319200
_cell_length_b	12.365400
_cell_length_c	25.111400
_cell_angle_alpha	81.897000
_cell_angle_beta	85.389000
_cell_angle_gamma	88.564000
_symmetry_Int_Tables_number 1

loop_
_symmetry_equiv_pos_as_xyz
'x,y,z'

loop_
_atom_site_label
_atom_site_type_symbol
_atom_site_fract_x
_atom_site_fract_y
_atom_site_fract_z
La11	La1	0.723240	0.094750	0.585250
La21	La2	0.993760	0.818010	0.839100
La31	La3	0.699510	0.329240	0.862880
La41	La4	0.217740	0.340640	0.649810
La51	La5	0.276760	0.905250	0.414750
La61	La6	0.006240	0.181990	0.160900
La71	La7	0.300490	0.670760	0.137120
La81	La8	0.782260	0.659360	0.350190
Mo11	Mo1	0.935900	0.898410	0.671430
Mo21	Mo2	0.042610	0.128660	0.592840
Mo31	Mo3	0.170120	0.018770	0.707030
Mo41	Mo4	0.761170	0.894980	0.738480
Mo51	Mo5	0.620660	0.144790	0.750340
Mo61	Mo6	0.742420	0.006480	0.859160
Mo71	Mo7	0.950090	0.120980	0.889130
Mo81	Mo8	0.170190	0.103960	0.795580
Mo91	Mo9	0.026500	0.353940	0.803440
Mo101	Mo10	0.926030	0.442550	0.722490
Mo111	Mo11	0.685430	0.323510	0.691990
Mo121	Mo12	0.910850	0.348150	0.600900
Mo131	Mo13	0.064100	0.101590	0.328570
Mo141	Mo14	0.957390	0.871340	0.407160
Mo151	Mo15	0.829880	0.981230	0.292970
Mo161	Mo16	0.238830	0.105020	0.261520
Mo171	Mo17	0.379340	0.855210	0.249660
Mo181	Mo18	0.257580	0.993520	0.140840
Mo191	Mo19	0.049910	0.879020	0.110870
Mo201	Mo20	0.829810	0.896040	0.204420
Mo211	Mo21	0.973500	0.646060	0.196560
Mo221	Mo22	0.073970	0.557450	0.277510
Mo231	Mo23	0.314570	0.676490	0.308010
Mo241	Mo24	0.089150	0.651850	0.399100
P11	P1	0.911710	0.150920	0.735340
P21	P2	0.088290	0.849080	0.264660
H11	H1	0.989600	0.316600	0.990900
H21	H2	0.686100	0.497500	0.512800
H31	H3	0.010400	0.683400	0.009100
H41	H4	0.313900	0.502500	0.487200
C11	C1	0.838200	0.422300	0.936600
C21	C2	0.922300	0.464300	0.971100
C31	C3	0.924000	0.575200	0.976900
C41	C4	0.994700	0.390200	0.994400
C51	C5	0.839400	0.659900	0.952900
C61	C6	0.440900	0.403300	0.511700
C71	C7	0.612100	0.498300	0.507700
C81	C8	0.551800	0.400900	0.519300
C91	C9	0.611400	0.298200	0.540100
C101	C10	0.370700	0.299500	0.521300
C111	C11	0.161800	0.577700	0.063400
C121	C12	0.077700	0.535700	0.028900
C131	C13	0.076000	0.424800	0.023100
C141	C14	0.005300	0.609800	0.005600
C151	C15	0.160600	0.340100	0.047100
C161	C16	0.559100	0.596700	0.488300
C171	C17	0.387900	0.501700	0.492300
C181	C18	0.448200	0.599100	0.480700
C191	C19	0.388600	0.701800	0.459900
C201	C20	0.629300	0.700500	0.478700
O11	O1	0.914000	0.865300	0.750100
O21	O2	0.795100	0.968500	0.666200
O31	O3	0.096500	0.893000	0.682400
O41	O4	0.978000	0.995200	0.600800
O51	O5	0.980500	0.084200	0.697200
O61	O6	0.164400	0.086700	0.628200
O71	O7	0.893800	0.192800	0.593200
O81	O8	0.055100	0.276500	0.612700
O91	O9	0.107700	0.969000	0.780300
O101	O10	0.188400	0.170500	0.720400
O111	O11	0.620700	0.982100	0.739600
O121	O12	0.747800	0.890200	0.819000
O131	O13	0.808400	0.084400	0.760500
O141	O14	0.674200	0.173600	0.674700
O151	O15	0.677600	0.279100	0.771500
O161	O16	0.629400	0.080900	0.830300
O171	O17	0.900700	0.981700	0.865900
O181	O18	0.798100	0.150000	0.872400
O191	O19	0.975000	0.267800	0.875200
O201	O20	0.089000	0.072700	0.868900
O211	O21	0.981400	0.172000	0.782800
O221	O22	0.167800	0.262000	0.811900
O231	O23	0.873900	0.380600	0.794200
O241	O24	0.068700	0.373100	0.725800
O251	O25	0.951600	0.448600	0.642000
O261	O26	0.763400	0.462900	0.707700
O271	O27	0.875500	0.261800	0.704800
O281	O28	0.766800	0.355700	0.619700
O291	O29	0.701700	0.281000	0.520400
O301	O30	0.562500	0.233300	0.578200
O311	O31	0.879700	0.745400	0.923000
O321	O32	0.744300	0.641800	0.965100
O331	O33	0.818700	0.477400	0.890700
O341	O34	0.797300	0.333800	0.951500
O351	O35	0.290500	0.299400	0.556300
O361	O36	0.399600	0.223100	0.493900
O371	O37	0.086000	0.134700	0.249900
O381	O38	0.204900	0.031500	0.333800
O391	O39	0.903500	0.107000	0.317600
O401	O40	0.022000	0.004800	0.399200
O411	O41	0.019500	0.915800	0.302800
O421	O42	0.835600	0.913300	0.371800
O431	O43	0.106200	0.807200	0.406800
O441	O44	0.944900	0.723500	0.387300
O451	O45	0.892300	0.031000	0.219700
O461	O46	0.811600	0.829500	0.279600
O471	O47	0.379300	0.017900	0.260400
O481	O48	0.252200	0.109800	0.181000
O491	O49	0.191600	0.915600	0.239500
O501	O50	0.325800	0.826400	0.325300
O511	O51	0.322400	0.720900	0.228500
O521	O52	0.370600	0.919100	0.169700
O531	O53	0.099300	0.018300	0.134100
O541	O54	0.201900	0.850000	0.127600
O551	O55	0.025000	0.732200	0.124800
O561	O56	0.911000	0.927300	0.131100
O571	O57	0.018600	0.828000	0.217200
O581	O58	0.832200	0.738000	0.188100
O591	O59	0.126100	0.619400	0.205800
O601	O60	0.931300	0.626900	0.274200
O611	O61	0.048400	0.551400	0.358000
O621	O62	0.236600	0.537100	0.292300
O631	O63	0.124500	0.738200	0.295200
O641	O64	0.233200	0.644300	0.380300
O651	O65	0.298300	0.719000	0.479600
O661	O66	0.437500	0.766700	0.421800
O671	O67	0.120300	0.254600	0.077000
O681	O68	0.255700	0.358200	0.034900
O691	O69	0.181300	0.522600	0.109300
O701	O70	0.202700	0.666200	0.048500
O711	O71	0.709500	0.700600	0.443700
O721	O72	0.600400	0.776900	0.506100
