data_WAVQER_clean_PM
_symmetry_space_group_name_H-M	'P1'
_cell_length_a	16.884500
_cell_length_b	16.884500
_cell_length_c	16.884500
_cell_angle_alpha	90.000000
_cell_angle_beta	90.000000
_cell_angle_gamma	90.000000
_symmetry_Int_Tables_number 1

loop_
_symmetry_equiv_pos_as_xyz
'x,y,z'

loop_
_atom_site_label
_atom_site_type_symbol
_atom_site_fract_x
_atom_site_fract_y
_atom_site_fract_z
In11	In1	0.992240	0.614150	0.549750
O11	O1	0.088800	0.542600	0.505600
O21	O2	0.038400	0.718600	0.499600
O31	O3	0.886900	0.663200	0.596800
O41	O4	0.885100	0.580000	0.700100
C11	C1	0.122900	0.627100	0.773800
O51	O5	0.946700	0.743200	0.409000
O61	O6	0.053600	0.646600	0.654100
C21	C2	0.058300	0.831500	0.420900
C31	C3	0.124800	0.853500	0.463200
H11	H1	0.140800	0.823300	0.506500
C41	C4	0.087900	0.595100	0.696700
C51	C5	0.009900	0.759500	0.443600
C61	C6	0.090300	0.694700	0.809400
H21	H2	0.045200	0.718300	0.788500
C71	C7	0.859300	0.637800	0.662700
C81	C8	0.750300	0.655500	0.761800
H31	H3	0.769000	0.611300	0.788800
C91	C9	0.789300	0.682100	0.695100
O71	O7	0.096000	0.524200	0.682000
In21	In2	0.507760	0.385850	0.049750
O81	O8	0.411200	0.457400	0.005600
O91	O9	0.461600	0.281400	0.999600
O101	O10	0.613100	0.336800	0.096800
O111	O11	0.614900	0.420000	0.200100
C101	C10	0.377100	0.372900	0.273800
O121	O12	0.553300	0.256800	0.909000
O131	O13	0.446400	0.353400	0.154100
C111	C11	0.441700	0.168500	0.920900
C121	C12	0.375200	0.146500	0.963200
H41	H4	0.359200	0.176700	0.006500
C131	C13	0.412100	0.404900	0.196700
C141	C14	0.490100	0.240500	0.943600
C151	C15	0.409700	0.305300	0.309400
H51	H5	0.454800	0.281700	0.288500
C161	C16	0.640700	0.362200	0.162700
C171	C17	0.749700	0.344500	0.261800
H61	H6	0.731000	0.388700	0.288800
C181	C18	0.710700	0.317900	0.195100
O141	O14	0.404000	0.475800	0.182000
In31	In3	0.007760	0.114150	0.950250
O151	O15	0.911200	0.042600	0.994400
O161	O16	0.961600	0.218600	0.000400
O171	O17	0.113100	0.163200	0.903200
O181	O18	0.114900	0.080000	0.799900
C191	C19	0.877100	0.127100	0.726200
O191	O19	0.053300	0.243200	0.091000
O201	O20	0.946400	0.146600	0.845900
C201	C20	0.941700	0.331500	0.079100
C211	C21	0.875200	0.353500	0.036800
H71	H7	0.859200	0.323300	0.993500
C221	C22	0.912100	0.095100	0.803300
C231	C23	0.990100	0.259500	0.056400
C241	C24	0.909700	0.194700	0.690600
H81	H8	0.954800	0.218300	0.711500
C251	C25	0.140700	0.137800	0.837300
C261	C26	0.249700	0.155500	0.738200
H91	H9	0.231000	0.111300	0.711200
C271	C27	0.210700	0.182100	0.804900
O211	O21	0.904000	0.024200	0.818000
In41	In4	0.492240	0.885850	0.450250
O221	O22	0.588800	0.957400	0.494400
O231	O23	0.538400	0.781400	0.500400
O241	O24	0.386900	0.836800	0.403200
O251	O25	0.385100	0.920000	0.299900
C281	C28	0.622900	0.872900	0.226200
O261	O26	0.446700	0.756800	0.591000
O271	O27	0.553600	0.853400	0.345900
C291	C29	0.558300	0.668500	0.579100
C301	C30	0.624800	0.646500	0.536800
H101	H10	0.640800	0.676700	0.493500
C311	C31	0.587900	0.904900	0.303300
C321	C32	0.509900	0.740500	0.556400
C331	C33	0.590300	0.805300	0.190600
H111	H11	0.545200	0.781700	0.211500
C341	C34	0.359300	0.862200	0.337300
C351	C35	0.250300	0.844500	0.238200
H121	H12	0.269000	0.888700	0.211200
C361	C36	0.289300	0.817900	0.304900
O281	O28	0.596000	0.975800	0.318000
In51	In5	0.549750	0.992240	0.614150
O291	O29	0.505600	0.088800	0.542600
O301	O30	0.499600	0.038400	0.718600
O311	O31	0.596800	0.886900	0.663200
O321	O32	0.700100	0.885100	0.580000
C371	C37	0.773800	0.122900	0.627100
O331	O33	0.409000	0.946700	0.743200
O341	O34	0.654100	0.053600	0.646600
C381	C38	0.420900	0.058300	0.831500
C391	C39	0.463200	0.124800	0.853500
H131	H13	0.506500	0.140800	0.823300
C401	C40	0.696700	0.087900	0.595100
C411	C41	0.443600	0.009900	0.759500
C421	C42	0.809400	0.090300	0.694700
H141	H14	0.788500	0.045200	0.718300
C431	C43	0.662700	0.859300	0.637800
C441	C44	0.761800	0.750300	0.655500
H151	H15	0.788800	0.769000	0.611300
C451	C45	0.695100	0.789300	0.682100
O351	O35	0.682000	0.096000	0.524200
In61	In6	0.049750	0.507760	0.385850
O361	O36	0.005600	0.411200	0.457400
O371	O37	0.999600	0.461600	0.281400
O381	O38	0.096800	0.613100	0.336800
O391	O39	0.200100	0.614900	0.420000
C461	C46	0.273800	0.377100	0.372900
O401	O40	0.909000	0.553300	0.256800
O411	O41	0.154100	0.446400	0.353400
C471	C47	0.920900	0.441700	0.168500
C481	C48	0.963200	0.375200	0.146500
H161	H16	0.006500	0.359200	0.176700
C491	C49	0.196700	0.412100	0.404900
C501	C50	0.943600	0.490100	0.240500
C511	C51	0.309400	0.409700	0.305300
H171	H17	0.288500	0.454800	0.281700
C521	C52	0.162700	0.640700	0.362200
C531	C53	0.261800	0.749700	0.344500
H181	H18	0.288800	0.731000	0.388700
C541	C54	0.195100	0.710700	0.317900
O421	O42	0.182000	0.404000	0.475800
In71	In7	0.950250	0.007760	0.114150
O431	O43	0.994400	0.911200	0.042600
O441	O44	0.000400	0.961600	0.218600
O451	O45	0.903200	0.113100	0.163200
O461	O46	0.799900	0.114900	0.080000
C551	C55	0.726200	0.877100	0.127100
O471	O47	0.091000	0.053300	0.243200
O481	O48	0.845900	0.946400	0.146600
C561	C56	0.079100	0.941700	0.331500
C571	C57	0.036800	0.875200	0.353500
H191	H19	0.993500	0.859200	0.323300
C581	C58	0.803300	0.912100	0.095100
C591	C59	0.056400	0.990100	0.259500
C601	C60	0.690600	0.909700	0.194700
H201	H20	0.711500	0.954800	0.218300
C611	C61	0.837300	0.140700	0.137800
C621	C62	0.738200	0.249700	0.155500
H211	H21	0.711200	0.231000	0.111300
C631	C63	0.804900	0.210700	0.182100
O491	O49	0.818000	0.904000	0.024200
In81	In8	0.450250	0.492240	0.885850
O501	O50	0.494400	0.588800	0.957400
O511	O51	0.500400	0.538400	0.781400
O521	O52	0.403200	0.386900	0.836800
O531	O53	0.299900	0.385100	0.920000
C641	C64	0.226200	0.622900	0.872900
O541	O54	0.591000	0.446700	0.756800
O551	O55	0.345900	0.553600	0.853400
C651	C65	0.579100	0.558300	0.668500
C661	C66	0.536800	0.624800	0.646500
H221	H22	0.493500	0.640800	0.676700
C671	C67	0.303300	0.587900	0.904900
C681	C68	0.556400	0.509900	0.740500
C691	C69	0.190600	0.590300	0.805300
H231	H23	0.211500	0.545200	0.781700
C701	C70	0.337300	0.359300	0.862200
C711	C71	0.238200	0.250300	0.844500
H241	H24	0.211200	0.269000	0.888700
C721	C72	0.304900	0.289300	0.817900
O561	O56	0.318000	0.596000	0.975800
In91	In9	0.614150	0.549750	0.992240
O571	O57	0.542600	0.505600	0.088800
O581	O58	0.718600	0.499600	0.038400
O591	O59	0.663200	0.596800	0.886900
O601	O60	0.580000	0.700100	0.885100
C731	C73	0.627100	0.773800	0.122900
O611	O61	0.743200	0.409000	0.946700
O621	O62	0.646600	0.654100	0.053600
C741	C74	0.831500	0.420900	0.058300
C751	C75	0.853500	0.463200	0.124800
H251	H25	0.823300	0.506500	0.140800
C761	C76	0.595100	0.696700	0.087900
C771	C77	0.759500	0.443600	0.009900
C781	C78	0.694700	0.809400	0.090300
H261	H26	0.718300	0.788500	0.045200
C791	C79	0.637800	0.662700	0.859300
C801	C80	0.655500	0.761800	0.750300
H271	H27	0.611300	0.788800	0.769000
C811	C81	0.682100	0.695100	0.789300
O631	O63	0.524200	0.682000	0.096000
In101	In10	0.385850	0.049750	0.507760
O641	O64	0.457400	0.005600	0.411200
O651	O65	0.281400	0.999600	0.461600
O661	O66	0.336800	0.096800	0.613100
O671	O67	0.420000	0.200100	0.614900
C821	C82	0.372900	0.273800	0.377100
O681	O68	0.256800	0.909000	0.553300
O691	O69	0.353400	0.154100	0.446400
C831	C83	0.168500	0.920900	0.441700
C841	C84	0.146500	0.963200	0.375200
H281	H28	0.176700	0.006500	0.359200
C851	C85	0.404900	0.196700	0.412100
C861	C86	0.240500	0.943600	0.490100
C871	C87	0.305300	0.309400	0.409700
H291	H29	0.281700	0.288500	0.454800
C881	C88	0.362200	0.162700	0.640700
C891	C89	0.344500	0.261800	0.749700
H301	H30	0.388700	0.288800	0.731000
C901	C90	0.317900	0.195100	0.710700
O701	O70	0.475800	0.182000	0.404000
In111	In11	0.114150	0.950250	0.007760
O711	O71	0.042600	0.994400	0.911200
O721	O72	0.218600	0.000400	0.961600
O731	O73	0.163200	0.903200	0.113100
O741	O74	0.080000	0.799900	0.114900
C911	C91	0.127100	0.726200	0.877100
O751	O75	0.243200	0.091000	0.053300
O761	O76	0.146600	0.845900	0.946400
C921	C92	0.331500	0.079100	0.941700
C931	C93	0.353500	0.036800	0.875200
H311	H31	0.323300	0.993500	0.859200
C941	C94	0.095100	0.803300	0.912100
C951	C95	0.259500	0.056400	0.990100
C961	C96	0.194700	0.690600	0.909700
H321	H32	0.218300	0.711500	0.954800
C971	C97	0.137800	0.837300	0.140700
C981	C98	0.155500	0.738200	0.249700
H331	H33	0.111300	0.711200	0.231000
C991	C99	0.182100	0.804900	0.210700
O771	O77	0.024200	0.818000	0.904000
In121	In12	0.885850	0.450250	0.492240
O781	O78	0.957400	0.494400	0.588800
O791	O79	0.781400	0.500400	0.538400
O801	O80	0.836800	0.403200	0.386900
O811	O81	0.920000	0.299900	0.385100
C1001	C100	0.872900	0.226200	0.622900
O821	O82	0.756800	0.591000	0.446700
O831	O83	0.853400	0.345900	0.553600
C1011	C101	0.668500	0.579100	0.558300
C1021	C102	0.646500	0.536800	0.624800
H341	H34	0.676700	0.493500	0.640800
C1031	C103	0.904900	0.303300	0.587900
C1041	C104	0.740500	0.556400	0.509900
C1051	C105	0.805300	0.190600	0.590300
H351	H35	0.781700	0.211500	0.545200
C1061	C106	0.862200	0.337300	0.359300
C1071	C107	0.844500	0.238200	0.250300
H361	H36	0.888700	0.211200	0.269000
C1081	C108	0.817900	0.304900	0.289300
O841	O84	0.975800	0.318000	0.596000
Sm11	Sm1	0.083940	0.416060	0.583940
O851	O85	0.939800	0.560200	0.439800
Sm21	Sm2	0.416060	0.583940	0.083940
O861	O86	0.560200	0.439800	0.939800
Sm31	Sm3	0.916060	0.916060	0.916060
O871	O87	0.060200	0.060200	0.060200
Sm41	Sm4	0.583940	0.083940	0.416060
O881	O88	0.439800	0.939800	0.560200
