data_WAVQAN_clean_PM
_symmetry_space_group_name_H-M	'P1'
_cell_length_a	16.875300
_cell_length_b	16.875300
_cell_length_c	16.875300
_cell_angle_alpha	90.000000
_cell_angle_beta	90.000000
_cell_angle_gamma	90.000000
_symmetry_Int_Tables_number 1

loop_
_symmetry_equiv_pos_as_xyz
'x,y,z'

loop_
_atom_site_label
_atom_site_type_symbol
_atom_site_fract_x
_atom_site_fract_y
_atom_site_fract_z
In11	In1	0.507700	0.614170	0.450500
O11	O1	0.410500	0.543000	0.495400
O21	O2	0.462500	0.719500	0.500400
O31	O3	0.613300	0.662800	0.402900
O41	O4	0.617000	0.580000	0.300300
O51	O5	0.447400	0.646900	0.345000
O61	O6	0.552900	0.743000	0.590600
C11	C1	0.377200	0.626500	0.225900
C21	C2	0.411600	0.597500	0.302900
C31	C3	0.490500	0.759700	0.557100
C41	C4	0.640800	0.637700	0.337100
C51	C5	0.408700	0.694900	0.189300
H11	H1	0.453600	0.719000	0.210300
C61	C6	0.738300	0.750600	0.345900
H21	H2	0.712400	0.768500	0.391100
C71	C7	0.442000	0.830800	0.580200
C81	C8	0.376000	0.852900	0.537800
H31	H3	0.360700	0.822500	0.494400
C91	C9	0.711300	0.682800	0.304100
O71	O7	0.403700	0.524100	0.316600
In21	In2	0.992300	0.385830	0.950500
O81	O8	0.089500	0.457000	0.995400
O91	O9	0.037500	0.280500	0.000400
O101	O10	0.886700	0.337200	0.902900
O111	O11	0.883000	0.420000	0.800300
O121	O12	0.052600	0.353100	0.845000
O131	O13	0.947100	0.257000	0.090600
C101	C10	0.122800	0.373500	0.725900
C111	C11	0.088400	0.402500	0.802900
C121	C12	0.009500	0.240300	0.057100
C131	C13	0.859200	0.362300	0.837100
C141	C14	0.091300	0.305100	0.689300
H41	H4	0.046400	0.281000	0.710300
C151	C15	0.761700	0.249400	0.845900
H51	H5	0.787600	0.231500	0.891100
C161	C16	0.058000	0.169200	0.080200
C171	C17	0.124000	0.147100	0.037800
H61	H6	0.139300	0.177500	0.994400
C181	C18	0.788700	0.317200	0.804100
O141	O14	0.096300	0.475900	0.816600
In31	In3	0.492300	0.114170	0.049500
O151	O15	0.589500	0.043000	0.004600
O161	O16	0.537500	0.219500	0.999600
O171	O17	0.386700	0.162800	0.097100
O181	O18	0.383000	0.080000	0.199700
O191	O19	0.552600	0.146900	0.155000
O201	O20	0.447100	0.243000	0.909400
C191	C19	0.622800	0.126500	0.274100
C201	C20	0.588400	0.097500	0.197100
C211	C21	0.509500	0.259700	0.942900
C221	C22	0.359200	0.137700	0.162900
C231	C23	0.591300	0.194900	0.310700
H71	H7	0.546400	0.219000	0.289700
C241	C24	0.261700	0.250600	0.154100
H81	H8	0.287600	0.268500	0.108900
C251	C25	0.558000	0.330800	0.919800
C261	C26	0.624000	0.352900	0.962200
H91	H9	0.639300	0.322500	0.005600
C271	C27	0.288700	0.182800	0.195900
O211	O21	0.596300	0.024100	0.183400
In41	In4	0.007700	0.885830	0.549500
O221	O22	0.910500	0.957000	0.504600
O231	O23	0.962500	0.780500	0.499600
O241	O24	0.113300	0.837200	0.597100
O251	O25	0.117000	0.920000	0.699700
O261	O26	0.947400	0.853100	0.655000
O271	O27	0.052900	0.757000	0.409400
C281	C28	0.877200	0.873500	0.774100
C291	C29	0.911600	0.902500	0.697100
C301	C30	0.990500	0.740300	0.442900
C311	C31	0.140800	0.862300	0.662900
C321	C32	0.908700	0.805100	0.810700
H101	H10	0.953600	0.781000	0.789700
C331	C33	0.238300	0.749400	0.654100
H111	H11	0.212400	0.731500	0.608900
C341	C34	0.942000	0.669200	0.419800
C351	C35	0.876000	0.647100	0.462200
H121	H12	0.860700	0.677500	0.505600
C361	C36	0.211300	0.817200	0.695900
O281	O28	0.903700	0.975900	0.683400
In51	In5	0.450500	0.507700	0.614170
O291	O29	0.495400	0.410500	0.543000
O301	O30	0.500400	0.462500	0.719500
O311	O31	0.402900	0.613300	0.662800
O321	O32	0.300300	0.617000	0.580000
O331	O33	0.345000	0.447400	0.646900
O341	O34	0.590600	0.552900	0.743000
C371	C37	0.225900	0.377200	0.626500
C381	C38	0.302900	0.411600	0.597500
C391	C39	0.557100	0.490500	0.759700
C401	C40	0.337100	0.640800	0.637700
C411	C41	0.189300	0.408700	0.694900
H131	H13	0.210300	0.453600	0.719000
C421	C42	0.345900	0.738300	0.750600
H141	H14	0.391100	0.712400	0.768500
C431	C43	0.580200	0.442000	0.830800
C441	C44	0.537800	0.376000	0.852900
H151	H15	0.494400	0.360700	0.822500
C451	C45	0.304100	0.711300	0.682800
O351	O35	0.316600	0.403700	0.524100
In61	In6	0.950500	0.992300	0.385830
O361	O36	0.995400	0.089500	0.457000
O371	O37	0.000400	0.037500	0.280500
O381	O38	0.902900	0.886700	0.337200
O391	O39	0.800300	0.883000	0.420000
O401	O40	0.845000	0.052600	0.353100
O411	O41	0.090600	0.947100	0.257000
C461	C46	0.725900	0.122800	0.373500
C471	C47	0.802900	0.088400	0.402500
C481	C48	0.057100	0.009500	0.240300
C491	C49	0.837100	0.859200	0.362300
C501	C50	0.689300	0.091300	0.305100
H161	H16	0.710300	0.046400	0.281000
C511	C51	0.845900	0.761700	0.249400
H171	H17	0.891100	0.787600	0.231500
C521	C52	0.080200	0.058000	0.169200
C531	C53	0.037800	0.124000	0.147100
H181	H18	0.994400	0.139300	0.177500
C541	C54	0.804100	0.788700	0.317200
O421	O42	0.816600	0.096300	0.475900
In71	In7	0.049500	0.492300	0.114170
O431	O43	0.004600	0.589500	0.043000
O441	O44	0.999600	0.537500	0.219500
O451	O45	0.097100	0.386700	0.162800
O461	O46	0.199700	0.383000	0.080000
O471	O47	0.155000	0.552600	0.146900
O481	O48	0.909400	0.447100	0.243000
C551	C55	0.274100	0.622800	0.126500
C561	C56	0.197100	0.588400	0.097500
C571	C57	0.942900	0.509500	0.259700
C581	C58	0.162900	0.359200	0.137700
C591	C59	0.310700	0.591300	0.194900
H191	H19	0.289700	0.546400	0.219000
C601	C60	0.154100	0.261700	0.250600
H201	H20	0.108900	0.287600	0.268500
C611	C61	0.919800	0.558000	0.330800
C621	C62	0.962200	0.624000	0.352900
H211	H21	0.005600	0.639300	0.322500
C631	C63	0.195900	0.288700	0.182800
O491	O49	0.183400	0.596300	0.024100
In81	In8	0.549500	0.007700	0.885830
O501	O50	0.504600	0.910500	0.957000
O511	O51	0.499600	0.962500	0.780500
O521	O52	0.597100	0.113300	0.837200
O531	O53	0.699700	0.117000	0.920000
O541	O54	0.655000	0.947400	0.853100
O551	O55	0.409400	0.052900	0.757000
C641	C64	0.774100	0.877200	0.873500
C651	C65	0.697100	0.911600	0.902500
C661	C66	0.442900	0.990500	0.740300
C671	C67	0.662900	0.140800	0.862300
C681	C68	0.810700	0.908700	0.805100
H221	H22	0.789700	0.953600	0.781000
C691	C69	0.654100	0.238300	0.749400
H231	H23	0.608900	0.212400	0.731500
C701	C70	0.419800	0.942000	0.669200
C711	C71	0.462200	0.876000	0.647100
H241	H24	0.505600	0.860700	0.677500
C721	C72	0.695900	0.211300	0.817200
O561	O56	0.683400	0.903700	0.975900
In91	In9	0.614170	0.450500	0.507700
O571	O57	0.543000	0.495400	0.410500
O581	O58	0.719500	0.500400	0.462500
O591	O59	0.662800	0.402900	0.613300
O601	O60	0.580000	0.300300	0.617000
O611	O61	0.646900	0.345000	0.447400
O621	O62	0.743000	0.590600	0.552900
C731	C73	0.626500	0.225900	0.377200
C741	C74	0.597500	0.302900	0.411600
C751	C75	0.759700	0.557100	0.490500
C761	C76	0.637700	0.337100	0.640800
C771	C77	0.694900	0.189300	0.408700
H251	H25	0.719000	0.210300	0.453600
C781	C78	0.750600	0.345900	0.738300
H261	H26	0.768500	0.391100	0.712400
C791	C79	0.830800	0.580200	0.442000
C801	C80	0.852900	0.537800	0.376000
H271	H27	0.822500	0.494400	0.360700
C811	C81	0.682800	0.304100	0.711300
O631	O63	0.524100	0.316600	0.403700
In101	In10	0.385830	0.950500	0.992300
O641	O64	0.457000	0.995400	0.089500
O651	O65	0.280500	0.000400	0.037500
O661	O66	0.337200	0.902900	0.886700
O671	O67	0.420000	0.800300	0.883000
O681	O68	0.353100	0.845000	0.052600
O691	O69	0.257000	0.090600	0.947100
C821	C82	0.373500	0.725900	0.122800
C831	C83	0.402500	0.802900	0.088400
C841	C84	0.240300	0.057100	0.009500
C851	C85	0.362300	0.837100	0.859200
C861	C86	0.305100	0.689300	0.091300
H281	H28	0.281000	0.710300	0.046400
C871	C87	0.249400	0.845900	0.761700
H291	H29	0.231500	0.891100	0.787600
C881	C88	0.169200	0.080200	0.058000
C891	C89	0.147100	0.037800	0.124000
H301	H30	0.177500	0.994400	0.139300
C901	C90	0.317200	0.804100	0.788700
O701	O70	0.475900	0.816600	0.096300
In111	In11	0.114170	0.049500	0.492300
O711	O71	0.043000	0.004600	0.589500
O721	O72	0.219500	0.999600	0.537500
O731	O73	0.162800	0.097100	0.386700
O741	O74	0.080000	0.199700	0.383000
O751	O75	0.146900	0.155000	0.552600
O761	O76	0.243000	0.909400	0.447100
C911	C91	0.126500	0.274100	0.622800
C921	C92	0.097500	0.197100	0.588400
C931	C93	0.259700	0.942900	0.509500
C941	C94	0.137700	0.162900	0.359200
C951	C95	0.194900	0.310700	0.591300
H311	H31	0.219000	0.289700	0.546400
C961	C96	0.250600	0.154100	0.261700
H321	H32	0.268500	0.108900	0.287600
C971	C97	0.330800	0.919800	0.558000
C981	C98	0.352900	0.962200	0.624000
H331	H33	0.322500	0.005600	0.639300
C991	C99	0.182800	0.195900	0.288700
O771	O77	0.024100	0.183400	0.596300
In121	In12	0.885830	0.549500	0.007700
O781	O78	0.957000	0.504600	0.910500
O791	O79	0.780500	0.499600	0.962500
O801	O80	0.837200	0.597100	0.113300
O811	O81	0.920000	0.699700	0.117000
O821	O82	0.853100	0.655000	0.947400
O831	O83	0.757000	0.409400	0.052900
C1001	C100	0.873500	0.774100	0.877200
C1011	C101	0.902500	0.697100	0.911600
C1021	C102	0.740300	0.442900	0.990500
C1031	C103	0.862300	0.662900	0.140800
C1041	C104	0.805100	0.810700	0.908700
H341	H34	0.781000	0.789700	0.953600
C1051	C105	0.749400	0.654100	0.238300
H351	H35	0.731500	0.608900	0.212400
C1061	C106	0.669200	0.419800	0.942000
C1071	C107	0.647100	0.462200	0.876000
H361	H36	0.677500	0.505600	0.860700
C1081	C108	0.817200	0.695900	0.211300
O841	O84	0.975900	0.683400	0.903700
Nd11	Nd1	0.415440	0.415440	0.415440
O851	O85	0.560300	0.560300	0.560300
Nd21	Nd2	0.084560	0.584560	0.915440
O861	O86	0.939700	0.439700	0.060300
Nd31	Nd3	0.584560	0.915440	0.084560
O871	O87	0.439700	0.060300	0.939700
Nd41	Nd4	0.915440	0.084560	0.584560
O881	O88	0.060300	0.939700	0.439700
