data_WAVQOB_clean_PM
_symmetry_space_group_name_H-M	'P1'
_cell_length_a	27.134400
_cell_length_b	27.134400
_cell_length_c	27.134400
_cell_angle_alpha	90.000000
_cell_angle_beta	90.000000
_cell_angle_gamma	90.000000
_symmetry_Int_Tables_number 1

loop_
_symmetry_equiv_pos_as_xyz
'x,y,z'

loop_
_atom_site_label
_atom_site_type_symbol
_atom_site_fract_x
_atom_site_fract_y
_atom_site_fract_z
In11	In1	0.929460	0.526720	0.006030
O11	O1	0.001390	0.555720	0.026850
O21	O2	0.862600	0.496500	0.977800
O31	O3	0.843700	0.456900	0.043800
O41	O4	0.984850	0.611040	0.936900
O51	O5	0.908500	0.590500	0.966000
C11	C1	0.839500	0.465700	0.998700
C21	C2	0.789800	0.452800	0.979900
C31	C3	0.761800	0.421600	0.010400
H11	H1	0.772800	0.405700	0.038700
C41	C4	0.708300	0.418400	0.988200
H21	H2	0.681300	0.412900	0.008700
C51	C5	0.701300	0.424200	0.935700
C61	C6	0.731700	0.453200	0.911200
H31	H3	0.723800	0.463800	0.879600
C71	C7	0.775700	0.467800	0.933300
H41	H4	0.796500	0.488700	0.915800
C81	C8	0.655000	0.406800	0.910700
C91	C9	0.636700	0.429000	0.871900
H51	H5	0.651800	0.457700	0.860900
C101	C10	0.940200	0.617900	0.938700
C111	C11	0.918200	0.664900	0.920000
C121	C12	0.870200	0.675700	0.925100
H61	H6	0.849700	0.653000	0.940700
C131	C13	0.851400	0.716400	0.909200
H71	H7	0.818700	0.724400	0.916000
C141	C14	0.881700	0.749000	0.880900
C151	C15	0.929100	0.738800	0.877100
H81	H8	0.950700	0.761300	0.862700
C161	C16	0.945000	0.697200	0.893900
H91	H9	0.977600	0.688900	0.887300
C171	C17	0.860900	0.798700	0.860100
C181	C18	0.819000	0.819600	0.879200
H101	H10	0.804000	0.804700	0.906100
C191	C19	0.870000	0.623700	0.148100
H111	H11	0.886500	0.635600	0.120600
O61	O6	0.886100	0.491600	0.123700
C201	C20	0.876900	0.541100	0.106400
C211	C21	0.816700	0.677500	0.256600
C221	C22	0.844200	0.718100	0.276900
H121	H12	0.874800	0.727200	0.264400
C231	C23	0.861500	0.571700	0.146500
C241	C24	0.836800	0.546000	0.185100
H131	H13	0.830000	0.512400	0.186500
C251	C25	0.858200	0.661400	0.183800
H141	H14	0.864900	0.695000	0.182500
C261	C26	0.833800	0.634300	0.221200
C271	C27	0.824600	0.582400	0.221100
H151	H15	0.808100	0.570600	0.248800
O71	O7	0.896500	0.562000	0.068000
In21	In2	0.570540	0.473280	0.506030
O81	O8	0.498610	0.444280	0.526850
O91	O9	0.637400	0.503500	0.477800
O101	O10	0.656300	0.543100	0.543800
O111	O11	0.515150	0.388960	0.436900
O121	O12	0.591500	0.409500	0.466000
C281	C28	0.660500	0.534300	0.498700
C291	C29	0.710200	0.547200	0.479900
C301	C30	0.738200	0.578400	0.510400
H161	H16	0.727200	0.594300	0.538700
C311	C31	0.791700	0.581600	0.488200
H171	H17	0.818700	0.587100	0.508700
C321	C32	0.798700	0.575800	0.435700
C331	C33	0.768300	0.546800	0.411200
H181	H18	0.776200	0.536200	0.379600
C341	C34	0.724300	0.532200	0.433300
H191	H19	0.703500	0.511300	0.415800
C351	C35	0.845000	0.593200	0.410700
C361	C36	0.863300	0.571000	0.371900
H201	H20	0.848200	0.542300	0.360900
C371	C37	0.559800	0.382100	0.438700
C381	C38	0.581800	0.335100	0.420000
C391	C39	0.629800	0.324300	0.425100
H211	H21	0.650300	0.347000	0.440700
C401	C40	0.648600	0.283600	0.409200
H221	H22	0.681300	0.275600	0.416000
C411	C41	0.618300	0.251000	0.380900
C421	C42	0.570900	0.261200	0.377100
H231	H23	0.549300	0.238700	0.362700
C431	C43	0.555000	0.302800	0.393900
H241	H24	0.522400	0.311100	0.387300
C441	C44	0.639100	0.201300	0.360100
C451	C45	0.681000	0.180400	0.379200
H251	H25	0.696000	0.195300	0.406100
C461	C46	0.630000	0.376300	0.648100
H261	H26	0.613500	0.364400	0.620600
O131	O13	0.613900	0.508400	0.623700
C471	C47	0.623100	0.458900	0.606400
C481	C48	0.683300	0.322500	0.756600
C491	C49	0.655800	0.281900	0.776900
H271	H27	0.625200	0.272800	0.764400
C501	C50	0.638500	0.428300	0.646500
C511	C51	0.663200	0.454000	0.685100
H281	H28	0.670000	0.487600	0.686500
C521	C52	0.641800	0.338600	0.683800
H291	H29	0.635100	0.305000	0.682500
C531	C53	0.666200	0.365700	0.721200
C541	C54	0.675400	0.417600	0.721100
H301	H30	0.691900	0.429400	0.748800
O141	O14	0.603500	0.438000	0.568000
In31	In3	0.070540	0.026720	0.493970
O151	O15	0.998610	0.055720	0.473150
O161	O16	0.137400	0.996500	0.522200
O171	O17	0.156300	0.956900	0.456200
O181	O18	0.015150	0.111040	0.563100
O191	O19	0.091500	0.090500	0.534000
C551	C55	0.160500	0.965700	0.501300
C561	C56	0.210200	0.952800	0.520100
C571	C57	0.238200	0.921600	0.489600
H311	H31	0.227200	0.905700	0.461300
C581	C58	0.291700	0.918400	0.511800
H321	H32	0.318700	0.912900	0.491300
C591	C59	0.298700	0.924200	0.564300
C601	C60	0.268300	0.953200	0.588800
H331	H33	0.276200	0.963800	0.620400
C611	C61	0.224300	0.967800	0.566700
H341	H34	0.203500	0.988700	0.584200
C621	C62	0.345000	0.906800	0.589300
C631	C63	0.363300	0.929000	0.628100
H351	H35	0.348200	0.957700	0.639100
C641	C64	0.059800	0.117900	0.561300
C651	C65	0.081800	0.164900	0.580000
C661	C66	0.129800	0.175700	0.574900
H361	H36	0.150300	0.153000	0.559300
C671	C67	0.148600	0.216400	0.590800
H371	H37	0.181300	0.224400	0.584000
C681	C68	0.118300	0.249000	0.619100
C691	C69	0.070900	0.238800	0.622900
H381	H38	0.049300	0.261300	0.637300
C701	C70	0.055000	0.197200	0.606100
H391	H39	0.022400	0.188900	0.612700
C711	C71	0.139100	0.298700	0.639900
C721	C72	0.181000	0.319600	0.620800
H401	H40	0.196000	0.304700	0.593900
C731	C73	0.130000	0.123700	0.351900
H411	H41	0.113500	0.135600	0.379400
O201	O20	0.113900	0.991600	0.376300
C741	C74	0.123100	0.041100	0.393600
C751	C75	0.183300	0.177500	0.243400
C761	C76	0.155800	0.218100	0.223100
H421	H42	0.125200	0.227200	0.235600
C771	C77	0.138500	0.071700	0.353500
C781	C78	0.163200	0.046000	0.314900
H431	H43	0.170000	0.012400	0.313500
C791	C79	0.141800	0.161400	0.316200
H441	H44	0.135100	0.195000	0.317500
C801	C80	0.166200	0.134300	0.278800
C811	C81	0.175400	0.082400	0.278900
H451	H45	0.191900	0.070600	0.251200
O211	O21	0.103500	0.062000	0.432000
In41	In4	0.429460	0.973280	0.993970
O221	O22	0.501390	0.944280	0.973150
O231	O23	0.362600	0.003500	0.022200
O241	O24	0.343700	0.043100	0.956200
O251	O25	0.484850	0.888960	0.063100
O261	O26	0.408500	0.909500	0.034000
C821	C82	0.339500	0.034300	0.001300
C831	C83	0.289800	0.047200	0.020100
C841	C84	0.261800	0.078400	0.989600
H461	H46	0.272800	0.094300	0.961300
C851	C85	0.208300	0.081600	0.011800
H471	H47	0.181300	0.087100	0.991300
C861	C86	0.201300	0.075800	0.064300
C871	C87	0.231700	0.046800	0.088800
H481	H48	0.223800	0.036200	0.120400
C881	C88	0.275700	0.032200	0.066700
H491	H49	0.296500	0.011300	0.084200
C891	C89	0.155000	0.093200	0.089300
C901	C90	0.136700	0.071000	0.128100
H501	H50	0.151800	0.042300	0.139100
C911	C91	0.440200	0.882100	0.061300
C921	C92	0.418200	0.835100	0.080000
C931	C93	0.370200	0.824300	0.074900
H511	H51	0.349700	0.847000	0.059300
C941	C94	0.351400	0.783600	0.090800
H521	H52	0.318700	0.775600	0.084000
C951	C95	0.381700	0.751000	0.119100
C961	C96	0.429100	0.761200	0.122900
H531	H53	0.450700	0.738700	0.137300
C971	C97	0.445000	0.802800	0.106100
H541	H54	0.477600	0.811100	0.112700
C981	C98	0.360900	0.701300	0.139900
C991	C99	0.319000	0.680400	0.120800
H551	H55	0.304000	0.695300	0.093900
C1001	C100	0.370000	0.876300	0.851900
H561	H56	0.386500	0.864400	0.879400
O271	O27	0.386100	0.008400	0.876300
C1011	C101	0.376900	0.958900	0.893600
C1021	C102	0.316700	0.822500	0.743400
C1031	C103	0.344200	0.781900	0.723100
H571	H57	0.374800	0.772800	0.735600
C1041	C104	0.361500	0.928300	0.853500
C1051	C105	0.336800	0.954000	0.814900
H581	H58	0.330000	0.987600	0.813500
C1061	C106	0.358200	0.838600	0.816200
H591	H59	0.364900	0.805000	0.817500
C1071	C107	0.333800	0.865700	0.778800
C1081	C108	0.324600	0.917600	0.778900
H601	H60	0.308100	0.929400	0.751200
O281	O28	0.396500	0.938000	0.932000
In51	In5	0.006030	0.929460	0.526720
O291	O29	0.026850	0.001390	0.555720
O301	O30	0.977800	0.862600	0.496500
O311	O31	0.043800	0.843700	0.456900
O321	O32	0.936900	0.984850	0.611040
O331	O33	0.966000	0.908500	0.590500
C1091	C109	0.998700	0.839500	0.465700
C1101	C110	0.979900	0.789800	0.452800
C1111	C111	0.010400	0.761800	0.421600
H611	H61	0.038700	0.772800	0.405700
C1121	C112	0.988200	0.708300	0.418400
H621	H62	0.008700	0.681300	0.412900
C1131	C113	0.935700	0.701300	0.424200
C1141	C114	0.911200	0.731700	0.453200
H631	H63	0.879600	0.723800	0.463800
C1151	C115	0.933300	0.775700	0.467800
H641	H64	0.915800	0.796500	0.488700
C1161	C116	0.910700	0.655000	0.406800
C1171	C117	0.871900	0.636700	0.429000
H651	H65	0.860900	0.651800	0.457700
C1181	C118	0.938700	0.940200	0.617900
C1191	C119	0.920000	0.918200	0.664900
C1201	C120	0.925100	0.870200	0.675700
H661	H66	0.940700	0.849700	0.653000
C1211	C121	0.909200	0.851400	0.716400
H671	H67	0.916000	0.818700	0.724400
C1221	C122	0.880900	0.881700	0.749000
C1231	C123	0.877100	0.929100	0.738800
H681	H68	0.862700	0.950700	0.761300
C1241	C124	0.893900	0.945000	0.697200
H691	H69	0.887300	0.977600	0.688900
C1251	C125	0.860100	0.860900	0.798700
C1261	C126	0.879200	0.819000	0.819600
H701	H70	0.906100	0.804000	0.804700
C1271	C127	0.148100	0.870000	0.623700
H711	H71	0.120600	0.886500	0.635600
O341	O34	0.123700	0.886100	0.491600
C1281	C128	0.106400	0.876900	0.541100
C1291	C129	0.256600	0.816700	0.677500
C1301	C130	0.276900	0.844200	0.718100
H721	H72	0.264400	0.874800	0.727200
C1311	C131	0.146500	0.861500	0.571700
C1321	C132	0.185100	0.836800	0.546000
H731	H73	0.186500	0.830000	0.512400
C1331	C133	0.183800	0.858200	0.661400
H741	H74	0.182500	0.864900	0.695000
C1341	C134	0.221200	0.833800	0.634300
C1351	C135	0.221100	0.824600	0.582400
H751	H75	0.248800	0.808100	0.570600
O351	O35	0.068000	0.896500	0.562000
In61	In6	0.506030	0.570540	0.473280
O361	O36	0.526850	0.498610	0.444280
O371	O37	0.477800	0.637400	0.503500
O381	O38	0.543800	0.656300	0.543100
O391	O39	0.436900	0.515150	0.388960
O401	O40	0.466000	0.591500	0.409500
C1361	C136	0.498700	0.660500	0.534300
C1371	C137	0.479900	0.710200	0.547200
C1381	C138	0.510400	0.738200	0.578400
H761	H76	0.538700	0.727200	0.594300
C1391	C139	0.488200	0.791700	0.581600
H771	H77	0.508700	0.818700	0.587100
C1401	C140	0.435700	0.798700	0.575800
C1411	C141	0.411200	0.768300	0.546800
H781	H78	0.379600	0.776200	0.536200
C1421	C142	0.433300	0.724300	0.532200
H791	H79	0.415800	0.703500	0.511300
C1431	C143	0.410700	0.845000	0.593200
C1441	C144	0.371900	0.863300	0.571000
H801	H80	0.360900	0.848200	0.542300
C1451	C145	0.438700	0.559800	0.382100
C1461	C146	0.420000	0.581800	0.335100
C1471	C147	0.425100	0.629800	0.324300
H811	H81	0.440700	0.650300	0.347000
C1481	C148	0.409200	0.648600	0.283600
H821	H82	0.416000	0.681300	0.275600
C1491	C149	0.380900	0.618300	0.251000
C1501	C150	0.377100	0.570900	0.261200
H831	H83	0.362700	0.549300	0.238700
C1511	C151	0.393900	0.555000	0.302800
H841	H84	0.387300	0.522400	0.311100
C1521	C152	0.360100	0.639100	0.201300
C1531	C153	0.379200	0.681000	0.180400
H851	H85	0.406100	0.696000	0.195300
C1541	C154	0.648100	0.630000	0.376300
H861	H86	0.620600	0.613500	0.364400
O411	O41	0.623700	0.613900	0.508400
C1551	C155	0.606400	0.623100	0.458900
C1561	C156	0.756600	0.683300	0.322500
C1571	C157	0.776900	0.655800	0.281900
H871	H87	0.764400	0.625200	0.272800
C1581	C158	0.646500	0.638500	0.428300
C1591	C159	0.685100	0.663200	0.454000
H881	H88	0.686500	0.670000	0.487600
C1601	C160	0.683800	0.641800	0.338600
H891	H89	0.682500	0.635100	0.305000
C1611	C161	0.721200	0.666200	0.365700
C1621	C162	0.721100	0.675400	0.417600
H901	H90	0.748800	0.691900	0.429400
O421	O42	0.568000	0.603500	0.438000
In71	In7	0.493970	0.070540	0.026720
O431	O43	0.473150	0.998610	0.055720
O441	O44	0.522200	0.137400	0.996500
O451	O45	0.456200	0.156300	0.956900
O461	O46	0.563100	0.015150	0.111040
O471	O47	0.534000	0.091500	0.090500
C1631	C163	0.501300	0.160500	0.965700
C1641	C164	0.520100	0.210200	0.952800
C1651	C165	0.489600	0.238200	0.921600
H911	H91	0.461300	0.227200	0.905700
C1661	C166	0.511800	0.291700	0.918400
H921	H92	0.491300	0.318700	0.912900
C1671	C167	0.564300	0.298700	0.924200
C1681	C168	0.588800	0.268300	0.953200
H931	H93	0.620400	0.276200	0.963800
C1691	C169	0.566700	0.224300	0.967800
H941	H94	0.584200	0.203500	0.988700
C1701	C170	0.589300	0.345000	0.906800
C1711	C171	0.628100	0.363300	0.929000
H951	H95	0.639100	0.348200	0.957700
C1721	C172	0.561300	0.059800	0.117900
C1731	C173	0.580000	0.081800	0.164900
C1741	C174	0.574900	0.129800	0.175700
H961	H96	0.559300	0.150300	0.153000
C1751	C175	0.590800	0.148600	0.216400
H971	H97	0.584000	0.181300	0.224400
C1761	C176	0.619100	0.118300	0.249000
C1771	C177	0.622900	0.070900	0.238800
H981	H98	0.637300	0.049300	0.261300
C1781	C178	0.606100	0.055000	0.197200
H991	H99	0.612700	0.022400	0.188900
C1791	C179	0.639900	0.139100	0.298700
C1801	C180	0.620800	0.181000	0.319600
H1001	H100	0.593900	0.196000	0.304700
C1811	C181	0.351900	0.130000	0.123700
H1011	H101	0.379400	0.113500	0.135600
O481	O48	0.376300	0.113900	0.991600
C1821	C182	0.393600	0.123100	0.041100
C1831	C183	0.243400	0.183300	0.177500
C1841	C184	0.223100	0.155800	0.218100
H1021	H102	0.235600	0.125200	0.227200
C1851	C185	0.353500	0.138500	0.071700
C1861	C186	0.314900	0.163200	0.046000
H1031	H103	0.313500	0.170000	0.012400
C1871	C187	0.316200	0.141800	0.161400
H1041	H104	0.317500	0.135100	0.195000
C1881	C188	0.278800	0.166200	0.134300
C1891	C189	0.278900	0.175400	0.082400
H1051	H105	0.251200	0.191900	0.070600
O491	O49	0.432000	0.103500	0.062000
In81	In8	0.993970	0.429460	0.973280
O501	O50	0.973150	0.501390	0.944280
O511	O51	0.022200	0.362600	0.003500
O521	O52	0.956200	0.343700	0.043100
O531	O53	0.063100	0.484850	0.888960
O541	O54	0.034000	0.408500	0.909500
C1901	C190	0.001300	0.339500	0.034300
C1911	C191	0.020100	0.289800	0.047200
C1921	C192	0.989600	0.261800	0.078400
H1061	H106	0.961300	0.272800	0.094300
C1931	C193	0.011800	0.208300	0.081600
H1071	H107	0.991300	0.181300	0.087100
C1941	C194	0.064300	0.201300	0.075800
C1951	C195	0.088800	0.231700	0.046800
H1081	H108	0.120400	0.223800	0.036200
C1961	C196	0.066700	0.275700	0.032200
H1091	H109	0.084200	0.296500	0.011300
C1971	C197	0.089300	0.155000	0.093200
C1981	C198	0.128100	0.136700	0.071000
H1101	H110	0.139100	0.151800	0.042300
C1991	C199	0.061300	0.440200	0.882100
C2001	C200	0.080000	0.418200	0.835100
C2011	C201	0.074900	0.370200	0.824300
H1111	H111	0.059300	0.349700	0.847000
C2021	C202	0.090800	0.351400	0.783600
H1121	H112	0.084000	0.318700	0.775600
C2031	C203	0.119100	0.381700	0.751000
C2041	C204	0.122900	0.429100	0.761200
H1131	H113	0.137300	0.450700	0.738700
C2051	C205	0.106100	0.445000	0.802800
H1141	H114	0.112700	0.477600	0.811100
C2061	C206	0.139900	0.360900	0.701300
C2071	C207	0.120800	0.319000	0.680400
H1151	H115	0.093900	0.304000	0.695300
C2081	C208	0.851900	0.370000	0.876300
H1161	H116	0.879400	0.386500	0.864400
O551	O55	0.876300	0.386100	0.008400
C2091	C209	0.893600	0.376900	0.958900
C2101	C210	0.743400	0.316700	0.822500
C2111	C211	0.723100	0.344200	0.781900
H1171	H117	0.735600	0.374800	0.772800
C2121	C212	0.853500	0.361500	0.928300
C2131	C213	0.814900	0.336800	0.954000
H1181	H118	0.813500	0.330000	0.987600
C2141	C214	0.816200	0.358200	0.838600
H1191	H119	0.817500	0.364900	0.805000
C2151	C215	0.778800	0.333800	0.865700
C2161	C216	0.778900	0.324600	0.917600
H1201	H120	0.751200	0.308100	0.929400
O561	O56	0.932000	0.396500	0.938000
In91	In9	0.526720	0.006030	0.929460
O571	O57	0.555720	0.026850	0.001390
O581	O58	0.496500	0.977800	0.862600
O591	O59	0.456900	0.043800	0.843700
O601	O60	0.611040	0.936900	0.984850
O611	O61	0.590500	0.966000	0.908500
C2171	C217	0.465700	0.998700	0.839500
C2181	C218	0.452800	0.979900	0.789800
C2191	C219	0.421600	0.010400	0.761800
H1211	H121	0.405700	0.038700	0.772800
C2201	C220	0.418400	0.988200	0.708300
H1221	H122	0.412900	0.008700	0.681300
C2211	C221	0.424200	0.935700	0.701300
C2221	C222	0.453200	0.911200	0.731700
H1231	H123	0.463800	0.879600	0.723800
C2231	C223	0.467800	0.933300	0.775700
H1241	H124	0.488700	0.915800	0.796500
C2241	C224	0.406800	0.910700	0.655000
C2251	C225	0.429000	0.871900	0.636700
H1251	H125	0.457700	0.860900	0.651800
C2261	C226	0.617900	0.938700	0.940200
C2271	C227	0.664900	0.920000	0.918200
C2281	C228	0.675700	0.925100	0.870200
H1261	H126	0.653000	0.940700	0.849700
C2291	C229	0.716400	0.909200	0.851400
H1271	H127	0.724400	0.916000	0.818700
C2301	C230	0.749000	0.880900	0.881700
C2311	C231	0.738800	0.877100	0.929100
H1281	H128	0.761300	0.862700	0.950700
C2321	C232	0.697200	0.893900	0.945000
H1291	H129	0.688900	0.887300	0.977600
C2331	C233	0.798700	0.860100	0.860900
C2341	C234	0.819600	0.879200	0.819000
H1301	H130	0.804700	0.906100	0.804000
C2351	C235	0.623700	0.148100	0.870000
H1311	H131	0.635600	0.120600	0.886500
O621	O62	0.491600	0.123700	0.886100
C2361	C236	0.541100	0.106400	0.876900
C2371	C237	0.677500	0.256600	0.816700
C2381	C238	0.718100	0.276900	0.844200
H1321	H132	0.727200	0.264400	0.874800
C2391	C239	0.571700	0.146500	0.861500
C2401	C240	0.546000	0.185100	0.836800
H1331	H133	0.512400	0.186500	0.830000
C2411	C241	0.661400	0.183800	0.858200
H1341	H134	0.695000	0.182500	0.864900
C2421	C242	0.634300	0.221200	0.833800
C2431	C243	0.582400	0.221100	0.824600
H1351	H135	0.570600	0.248800	0.808100
O631	O63	0.562000	0.068000	0.896500
In101	In10	0.473280	0.506030	0.570540
O641	O64	0.444280	0.526850	0.498610
O651	O65	0.503500	0.477800	0.637400
O661	O66	0.543100	0.543800	0.656300
O671	O67	0.388960	0.436900	0.515150
O681	O68	0.409500	0.466000	0.591500
C2441	C244	0.534300	0.498700	0.660500
C2451	C245	0.547200	0.479900	0.710200
C2461	C246	0.578400	0.510400	0.738200
H1361	H136	0.594300	0.538700	0.727200
C2471	C247	0.581600	0.488200	0.791700
H1371	H137	0.587100	0.508700	0.818700
C2481	C248	0.575800	0.435700	0.798700
C2491	C249	0.546800	0.411200	0.768300
H1381	H138	0.536200	0.379600	0.776200
C2501	C250	0.532200	0.433300	0.724300
H1391	H139	0.511300	0.415800	0.703500
C2511	C251	0.593200	0.410700	0.845000
C2521	C252	0.571000	0.371900	0.863300
H1401	H140	0.542300	0.360900	0.848200
C2531	C253	0.382100	0.438700	0.559800
C2541	C254	0.335100	0.420000	0.581800
C2551	C255	0.324300	0.425100	0.629800
H1411	H141	0.347000	0.440700	0.650300
C2561	C256	0.283600	0.409200	0.648600
H1421	H142	0.275600	0.416000	0.681300
C2571	C257	0.251000	0.380900	0.618300
C2581	C258	0.261200	0.377100	0.570900
H1431	H143	0.238700	0.362700	0.549300
C2591	C259	0.302800	0.393900	0.555000
H1441	H144	0.311100	0.387300	0.522400
C2601	C260	0.201300	0.360100	0.639100
C2611	C261	0.180400	0.379200	0.681000
H1451	H145	0.195300	0.406100	0.696000
C2621	C262	0.376300	0.648100	0.630000
H1461	H146	0.364400	0.620600	0.613500
O691	O69	0.508400	0.623700	0.613900
C2631	C263	0.458900	0.606400	0.623100
C2641	C264	0.322500	0.756600	0.683300
C2651	C265	0.281900	0.776900	0.655800
H1471	H147	0.272800	0.764400	0.625200
C2661	C266	0.428300	0.646500	0.638500
C2671	C267	0.454000	0.685100	0.663200
H1481	H148	0.487600	0.686500	0.670000
C2681	C268	0.338600	0.683800	0.641800
H1491	H149	0.305000	0.682500	0.635100
C2691	C269	0.365700	0.721200	0.666200
C2701	C270	0.417600	0.721100	0.675400
H1501	H150	0.429400	0.748800	0.691900
O701	O70	0.438000	0.568000	0.603500
In111	In11	0.026720	0.493970	0.070540
O711	O71	0.055720	0.473150	0.998610
O721	O72	0.996500	0.522200	0.137400
O731	O73	0.956900	0.456200	0.156300
O741	O74	0.111040	0.563100	0.015150
O751	O75	0.090500	0.534000	0.091500
C2711	C271	0.965700	0.501300	0.160500
C2721	C272	0.952800	0.520100	0.210200
C2731	C273	0.921600	0.489600	0.238200
H1511	H151	0.905700	0.461300	0.227200
C2741	C274	0.918400	0.511800	0.291700
H1521	H152	0.912900	0.491300	0.318700
C2751	C275	0.924200	0.564300	0.298700
C2761	C276	0.953200	0.588800	0.268300
H1531	H153	0.963800	0.620400	0.276200
C2771	C277	0.967800	0.566700	0.224300
H1541	H154	0.988700	0.584200	0.203500
C2781	C278	0.906800	0.589300	0.345000
C2791	C279	0.929000	0.628100	0.363300
H1551	H155	0.957700	0.639100	0.348200
C2801	C280	0.117900	0.561300	0.059800
C2811	C281	0.164900	0.580000	0.081800
C2821	C282	0.175700	0.574900	0.129800
H1561	H156	0.153000	0.559300	0.150300
C2831	C283	0.216400	0.590800	0.148600
H1571	H157	0.224400	0.584000	0.181300
C2841	C284	0.249000	0.619100	0.118300
C2851	C285	0.238800	0.622900	0.070900
H1581	H158	0.261300	0.637300	0.049300
C2861	C286	0.197200	0.606100	0.055000
H1591	H159	0.188900	0.612700	0.022400
C2871	C287	0.298700	0.639900	0.139100
C2881	C288	0.319600	0.620800	0.181000
H1601	H160	0.304700	0.593900	0.196000
C2891	C289	0.123700	0.351900	0.130000
H1611	H161	0.135600	0.379400	0.113500
O761	O76	0.991600	0.376300	0.113900
C2901	C290	0.041100	0.393600	0.123100
C2911	C291	0.177500	0.243400	0.183300
C2921	C292	0.218100	0.223100	0.155800
H1621	H162	0.227200	0.235600	0.125200
C2931	C293	0.071700	0.353500	0.138500
C2941	C294	0.046000	0.314900	0.163200
H1631	H163	0.012400	0.313500	0.170000
C2951	C295	0.161400	0.316200	0.141800
H1641	H164	0.195000	0.317500	0.135100
C2961	C296	0.134300	0.278800	0.166200
C2971	C297	0.082400	0.278900	0.175400
H1651	H165	0.070600	0.251200	0.191900
O771	O77	0.062000	0.432000	0.103500
In121	In12	0.973280	0.993970	0.429460
O781	O78	0.944280	0.973150	0.501390
O791	O79	0.003500	0.022200	0.362600
O801	O80	0.043100	0.956200	0.343700
O811	O81	0.888960	0.063100	0.484850
O821	O82	0.909500	0.034000	0.408500
C2981	C298	0.034300	0.001300	0.339500
C2991	C299	0.047200	0.020100	0.289800
C3001	C300	0.078400	0.989600	0.261800
H1661	H166	0.094300	0.961300	0.272800
C3011	C301	0.081600	0.011800	0.208300
H1671	H167	0.087100	0.991300	0.181300
C3021	C302	0.075800	0.064300	0.201300
C3031	C303	0.046800	0.088800	0.231700
H1681	H168	0.036200	0.120400	0.223800
C3041	C304	0.032200	0.066700	0.275700
H1691	H169	0.011300	0.084200	0.296500
C3051	C305	0.093200	0.089300	0.155000
C3061	C306	0.071000	0.128100	0.136700
H1701	H170	0.042300	0.139100	0.151800
C3071	C307	0.882100	0.061300	0.440200
C3081	C308	0.835100	0.080000	0.418200
C3091	C309	0.824300	0.074900	0.370200
H1711	H171	0.847000	0.059300	0.349700
C3101	C310	0.783600	0.090800	0.351400
H1721	H172	0.775600	0.084000	0.318700
C3111	C311	0.751000	0.119100	0.381700
C3121	C312	0.761200	0.122900	0.429100
H1731	H173	0.738700	0.137300	0.450700
C3131	C313	0.802800	0.106100	0.445000
H1741	H174	0.811100	0.112700	0.477600
C3141	C314	0.701300	0.139900	0.360900
C3151	C315	0.680400	0.120800	0.319000
H1751	H175	0.695300	0.093900	0.304000
C3161	C316	0.876300	0.851900	0.370000
H1761	H176	0.864400	0.879400	0.386500
O831	O83	0.008400	0.876300	0.386100
C3171	C317	0.958900	0.893600	0.376900
C3181	C318	0.822500	0.743400	0.316700
C3191	C319	0.781900	0.723100	0.344200
H1771	H177	0.772800	0.735600	0.374800
C3201	C320	0.928300	0.853500	0.361500
C3211	C321	0.954000	0.814900	0.336800
H1781	H178	0.987600	0.813500	0.330000
C3221	C322	0.838600	0.816200	0.358200
H1791	H179	0.805000	0.817500	0.364900
C3231	C323	0.865700	0.778800	0.333800
C3241	C324	0.917600	0.778900	0.324600
H1801	H180	0.929400	0.751200	0.308100
O841	O84	0.938000	0.932000	0.396500
Pr11	Pr1	0.052400	0.552400	0.947600
Pr21	Pr2	0.909840	0.409840	0.090160
O851	O85	0.961370	0.461370	0.038630
Pr31	Pr3	0.447600	0.447600	0.447600
Pr41	Pr4	0.590160	0.590160	0.590160
O861	O86	0.538630	0.538630	0.538630
Pr51	Pr5	0.947600	0.052400	0.552400
Pr61	Pr6	0.090160	0.909840	0.409840
O871	O87	0.038630	0.961370	0.461370
Pr71	Pr7	0.552400	0.947600	0.052400
Pr81	Pr8	0.409840	0.090160	0.909840
O881	O88	0.461370	0.038630	0.961370
