data_WAVWEW_clean_PM
_symmetry_space_group_name_H-M	'P1'
_cell_length_a	6.783000
_cell_length_b	18.974000
_cell_length_c	9.394000
_cell_angle_alpha	90.000000
_cell_angle_beta	90.000000
_cell_angle_gamma	90.000000
_symmetry_Int_Tables_number 1

loop_
_symmetry_equiv_pos_as_xyz
'x,y,z'

loop_
_atom_site_label
_atom_site_type_symbol
_atom_site_fract_x
_atom_site_fract_y
_atom_site_fract_z
Ba11	Ba1	0.750000	0.750000	0.972940
Ba21	Ba2	0.250000	0.250000	0.527060
Ba31	Ba3	0.250000	0.250000	0.027060
Ba41	Ba4	0.750000	0.750000	0.472940
Co11	Co1	0.500000	0.500000	0.000000
Co21	Co2	0.000000	0.000000	0.000000
Co31	Co3	0.000000	0.500000	0.500000
Co41	Co4	0.500000	0.000000	0.500000
H11	H1	0.645400	0.584500	0.400100
H21	H2	0.436200	0.569700	0.338000
H31	H3	0.854600	0.915500	0.400100
H41	H4	0.063800	0.930300	0.338000
H51	H5	0.145400	0.415500	0.099900
H61	H6	0.936200	0.430300	0.162000
H71	H7	0.354600	0.084500	0.099900
H81	H8	0.563800	0.069700	0.162000
H91	H9	0.354600	0.415500	0.599900
H101	H10	0.563800	0.430300	0.662000
H111	H11	0.145400	0.084500	0.599900
H121	H12	0.936200	0.069700	0.662000
H131	H13	0.854600	0.584500	0.900100
H141	H14	0.063800	0.569700	0.838000
H151	H15	0.645400	0.915500	0.900100
H161	H16	0.436200	0.930300	0.838000
C11	C1	0.618700	0.615700	0.194500
C21	C2	0.576000	0.566500	0.317400
C31	C3	0.626700	0.489700	0.303200
C41	C4	0.881300	0.884300	0.194500
C51	C5	0.924000	0.933500	0.317400
C61	C6	0.873300	0.010300	0.303200
C71	C7	0.118700	0.384300	0.305500
C81	C8	0.076000	0.433500	0.182600
C91	C9	0.126700	0.510300	0.196800
C101	C10	0.381300	0.115700	0.305500
C111	C11	0.424000	0.066500	0.182600
C121	C12	0.373300	0.989700	0.196800
C131	C13	0.381300	0.384300	0.805500
C141	C14	0.424000	0.433500	0.682600
C151	C15	0.373300	0.510300	0.696800
C161	C16	0.118700	0.115700	0.805500
C171	C17	0.076000	0.066500	0.682600
C181	C18	0.126700	0.989700	0.696800
C191	C19	0.881300	0.615700	0.694500
C201	C20	0.924000	0.566500	0.817400
C211	C21	0.873300	0.489700	0.803200
C221	C22	0.618700	0.884300	0.694500
C231	C23	0.576000	0.933500	0.817400
C241	C24	0.626700	0.010300	0.803200
O11	O1	0.615700	0.593680	0.066200
O21	O2	0.650800	0.678840	0.223300
O31	O3	0.571400	0.455850	0.193800
O41	O4	0.719700	0.460840	0.402200
O51	O5	0.884300	0.906320	0.066200
O61	O6	0.849200	0.821160	0.223300
O71	O7	0.928600	0.044150	0.193800
O81	O8	0.780300	0.039160	0.402200
O91	O9	0.115700	0.406320	0.433800
O101	O10	0.150800	0.321160	0.276700
O111	O11	0.071400	0.544150	0.306200
O121	O12	0.219700	0.539160	0.097800
O131	O13	0.384300	0.093680	0.433800
O141	O14	0.349200	0.178840	0.276700
O151	O15	0.428600	0.955850	0.306200
O161	O16	0.280300	0.960840	0.097800
O171	O17	0.384300	0.406320	0.933800
O181	O18	0.349200	0.321160	0.776700
O191	O19	0.428600	0.544150	0.806200
O201	O20	0.280300	0.539160	0.597800
O211	O21	0.115700	0.093680	0.933800
O221	O22	0.150800	0.178840	0.776700
O231	O23	0.071400	0.955850	0.806200
O241	O24	0.219700	0.960840	0.597800
O251	O25	0.884300	0.593680	0.566200
O261	O26	0.849200	0.678840	0.723300
O271	O27	0.928600	0.455850	0.693800
O281	O28	0.780300	0.460840	0.902200
O291	O29	0.615700	0.906320	0.566200
O301	O30	0.650800	0.821160	0.723300
O311	O31	0.571400	0.044150	0.693800
O321	O32	0.719700	0.039160	0.902200
