data_WAWGOQ_clean_PM
_symmetry_space_group_name_H-M	'P1'
_cell_length_a	16.938100
_cell_length_b	16.938100
_cell_length_c	32.598000
_cell_angle_alpha	87.773400
_cell_angle_beta	87.773400
_cell_angle_gamma	70.328200
_symmetry_Int_Tables_number 1

loop_
_symmetry_equiv_pos_as_xyz
'x,y,z'

loop_
_atom_site_label
_atom_site_type_symbol
_atom_site_fract_x
_atom_site_fract_y
_atom_site_fract_z
Zn11	Zn1	0.313590	0.855930	0.442890
Zn21	Zn2	0.851260	0.797060	0.194730
Zn31	Zn3	0.855930	0.313590	0.942890
Zn41	Zn4	0.797060	0.851260	0.694730
H11	H1	0.292800	0.783200	0.292900
H21	H2	0.434400	0.784200	0.296400
H31	H3	0.625500	0.823700	0.417400
H41	H4	0.603900	0.846300	0.491300
H51	H5	0.346200	0.886800	0.595300
H61	H6	0.203100	0.885700	0.592600
H71	H7	0.019000	0.839000	0.475600
H81	H8	0.044000	0.808800	0.401600
H91	H9	0.078000	0.911800	0.321600
H101	H10	0.996400	0.879600	0.273100
H111	H11	0.126200	0.638600	0.286000
H121	H12	0.205900	0.667700	0.335900
H131	H13	0.998600	0.672400	0.204600
H141	H14	0.505000	0.906200	0.312300
H151	H15	0.614200	0.885400	0.265500
H161	H16	0.742900	0.673100	0.322200
H171	H17	0.629800	0.691800	0.368700
H181	H18	0.707700	0.878100	0.236200
H191	H19	0.439100	0.994700	0.560400
H201	H20	0.517000	0.009800	0.616900
H211	H21	0.647500	0.765500	0.613300
H221	H22	0.568800	0.751400	0.559700
H231	H23	0.024300	0.989100	0.538900
H241	H24	0.917600	0.996000	0.585300
H251	H25	0.019700	0.754500	0.611200
H261	H26	0.126400	0.742600	0.561800
H271	H27	0.783200	0.292800	0.792900
H281	H28	0.784200	0.434400	0.796400
H291	H29	0.823700	0.625500	0.917400
H301	H30	0.846300	0.603900	0.991300
H311	H31	0.886800	0.346200	0.095300
H321	H32	0.885700	0.203100	0.092600
H331	H33	0.839000	0.019000	0.975600
H341	H34	0.808800	0.044000	0.901600
H351	H35	0.911800	0.078000	0.821600
H361	H36	0.879600	0.996400	0.773100
H371	H37	0.638600	0.126200	0.786000
H381	H38	0.667700	0.205900	0.835900
H391	H39	0.672400	0.998600	0.704600
H401	H40	0.906200	0.505000	0.812300
H411	H41	0.885400	0.614200	0.765500
H421	H42	0.673100	0.742900	0.822200
H431	H43	0.691800	0.629800	0.868700
H441	H44	0.878100	0.707700	0.736200
H451	H45	0.994700	0.439100	0.060400
H461	H46	0.009800	0.517000	0.116900
H471	H47	0.765500	0.647500	0.113300
H481	H48	0.751400	0.568800	0.059700
H491	H49	0.989100	0.024300	0.038900
H501	H50	0.996000	0.917600	0.085300
H511	H51	0.754500	0.019700	0.111200
H521	H52	0.742600	0.126400	0.061800
C11	C1	0.161360	0.823960	0.406800
C21	C2	0.199010	0.810010	0.367840
C31	C3	0.279200	0.806800	0.356720
C41	C4	0.318000	0.792000	0.316350
C51	C5	0.395600	0.792800	0.318200
C61	C6	0.409600	0.809200	0.360170
C71	C7	0.484180	0.811980	0.374370
C81	C8	0.499960	0.822760	0.416440
C91	C9	0.576550	0.828350	0.432580
C101	C10	0.564800	0.841400	0.473210
C111	C11	0.480530	0.846130	0.483060
C121	C12	0.441430	0.861430	0.522070
C131	C13	0.359770	0.866770	0.531810
C141	C14	0.320400	0.879600	0.571770
C151	C15	0.241700	0.879500	0.570780
C161	C16	0.230030	0.867630	0.528180
C171	C17	0.155860	0.859660	0.514080
C181	C18	0.141640	0.845440	0.473620
C191	C19	0.067140	0.835540	0.459960
C201	C20	0.081060	0.820060	0.418860
C211	C21	0.145930	0.794930	0.334560
C221	C22	0.087500	0.856100	0.315320
C231	C23	0.039800	0.836800	0.285260
C241	C24	0.056250	0.756650	0.273840
C251	C25	0.116300	0.693900	0.293100
C261	C26	0.163500	0.710900	0.323300
C271	C27	0.001000	0.741800	0.241360
C281	C28	0.553700	0.801300	0.345130
C291	C29	0.551900	0.858100	0.314600
C301	C30	0.618400	0.846000	0.286740
C311	C31	0.688760	0.779160	0.289530
C321	C32	0.694800	0.720000	0.319920
C331	C33	0.626400	0.731800	0.347820
C341	C34	0.764100	0.763700	0.259950
C351	C35	0.496920	0.869520	0.556220
C361	C36	0.480500	0.948500	0.571610
C371	C37	0.528550	0.957750	0.605140
C381	C38	0.592800	0.888200	0.620070
C391	C39	0.605600	0.812600	0.603120
C401	C40	0.557900	0.803700	0.570940
C411	C41	0.643800	0.900800	0.653370
C421	C42	0.085160	0.867560	0.544520
C431	C43	0.023700	0.940300	0.552830
C441	C44	0.959900	0.944900	0.581150
C451	C45	0.958370	0.875970	0.603020
C461	C46	0.020300	0.801900	0.595980
C471	C47	0.085100	0.794100	0.566580
C481	C48	0.892200	0.877800	0.634550
C491	C49	0.823960	0.161360	0.906800
C501	C50	0.810010	0.199010	0.867840
C511	C51	0.806800	0.279200	0.856720
C521	C52	0.792000	0.318000	0.816350
C531	C53	0.792800	0.395600	0.818200
C541	C54	0.809200	0.409600	0.860170
C551	C55	0.811980	0.484180	0.874370
C561	C56	0.822760	0.499960	0.916440
C571	C57	0.828350	0.576550	0.932580
C581	C58	0.841400	0.564800	0.973210
C591	C59	0.846130	0.480530	0.983060
C601	C60	0.861430	0.441430	0.022070
C611	C61	0.866770	0.359770	0.031810
C621	C62	0.879600	0.320400	0.071770
C631	C63	0.879500	0.241700	0.070780
C641	C64	0.867630	0.230030	0.028180
C651	C65	0.859660	0.155860	0.014080
C661	C66	0.845440	0.141640	0.973620
C671	C67	0.835540	0.067140	0.959960
C681	C68	0.820060	0.081060	0.918860
C691	C69	0.794930	0.145930	0.834560
C701	C70	0.856100	0.087500	0.815320
C711	C71	0.836800	0.039800	0.785260
C721	C72	0.756650	0.056250	0.773840
C731	C73	0.693900	0.116300	0.793100
C741	C74	0.710900	0.163500	0.823300
C751	C75	0.741800	0.001000	0.741360
C761	C76	0.801300	0.553700	0.845130
C771	C77	0.858100	0.551900	0.814600
C781	C78	0.846000	0.618400	0.786740
C791	C79	0.779160	0.688760	0.789530
C801	C80	0.720000	0.694800	0.819920
C811	C81	0.731800	0.626400	0.847820
C821	C82	0.763700	0.764100	0.759950
C831	C83	0.869520	0.496920	0.056220
C841	C84	0.948500	0.480500	0.071610
C851	C85	0.957750	0.528550	0.105140
C861	C86	0.888200	0.592800	0.120070
C871	C87	0.812600	0.605600	0.103120
C881	C88	0.803700	0.557900	0.070940
C891	C89	0.900800	0.643800	0.153370
C901	C90	0.867560	0.085160	0.044520
C911	C91	0.940300	0.023700	0.052830
C921	C92	0.944900	0.959900	0.081150
C931	C93	0.875970	0.958370	0.103020
C941	C94	0.801900	0.020300	0.095980
C951	C95	0.794100	0.085100	0.066580
C961	C96	0.877800	0.892200	0.134550
N11	N1	0.336560	0.818960	0.382930
N21	N2	0.440310	0.835310	0.448260
N31	N3	0.301270	0.860870	0.505470
N41	N4	0.200240	0.837040	0.441400
N51	N5	0.818960	0.336560	0.882930
N61	N6	0.835310	0.440310	0.948260
N71	N7	0.860870	0.301270	0.005470
N81	N8	0.837040	0.200240	0.941400
O11	O1	0.020170	0.663770	0.232430
O21	O2	0.945200	0.801000	0.226270
O31	O3	0.826010	0.701210	0.261080
O41	O4	0.753720	0.827120	0.232400
O51	O5	0.707750	0.842150	0.661370
O61	O6	0.619700	0.969900	0.671020
O71	O7	0.901170	0.820970	0.660980
O81	O8	0.822780	0.939780	0.632400
O91	O9	0.663770	0.020170	0.732430
O101	O10	0.801000	0.945200	0.726270
O111	O11	0.701210	0.826010	0.761080
O121	O12	0.827120	0.753720	0.732400
O131	O13	0.842150	0.707750	0.161370
O141	O14	0.969900	0.619700	0.171020
O151	O15	0.820970	0.901170	0.160980
O161	O16	0.939780	0.822780	0.132400
Zn51	Zn5	0.144070	0.686410	0.057110
Zn61	Zn6	0.202940	0.148740	0.305270
Zn71	Zn7	0.686410	0.144070	0.557110
Zn81	Zn8	0.148740	0.202940	0.805270
H531	H53	0.216800	0.707200	0.207100
H541	H54	0.215800	0.565600	0.203600
H551	H55	0.176300	0.374500	0.082600
H561	H56	0.153700	0.396100	0.008700
H571	H57	0.113200	0.653800	0.904700
H581	H58	0.114300	0.796900	0.907400
H591	H59	0.161000	0.981000	0.024400
H601	H60	0.191200	0.956000	0.098400
H611	H61	0.088200	0.922000	0.178400
H621	H62	0.120400	0.003600	0.226900
H631	H63	0.361400	0.873800	0.214000
H641	H64	0.332300	0.794100	0.164100
H651	H65	0.327600	0.001400	0.295400
H661	H66	0.093800	0.495000	0.187700
H671	H67	0.114600	0.385800	0.234500
H681	H68	0.326900	0.257100	0.177800
H691	H69	0.308200	0.370200	0.131300
H701	H70	0.121900	0.292300	0.263800
H711	H71	0.005300	0.560900	0.939600
H721	H72	0.990200	0.483000	0.883100
H731	H73	0.234500	0.352500	0.886700
H741	H74	0.248600	0.431200	0.940300
H751	H75	0.010900	0.975700	0.961100
H761	H76	0.004000	0.082400	0.914700
H771	H77	0.245500	0.980300	0.888800
H781	H78	0.257400	0.873600	0.938200
H791	H79	0.707200	0.216800	0.707100
H801	H80	0.565600	0.215800	0.703600
H811	H81	0.374500	0.176300	0.582600
H821	H82	0.396100	0.153700	0.508700
H831	H83	0.653800	0.113200	0.404700
H841	H84	0.796900	0.114300	0.407400
H851	H85	0.981000	0.161000	0.524400
H861	H86	0.956000	0.191200	0.598400
H871	H87	0.922000	0.088200	0.678400
H881	H88	0.003600	0.120400	0.726900
H891	H89	0.873800	0.361400	0.714000
H901	H90	0.794100	0.332300	0.664100
H911	H91	0.001400	0.327600	0.795400
H921	H92	0.495000	0.093800	0.687700
H931	H93	0.385800	0.114600	0.734500
H941	H94	0.257100	0.326900	0.677800
H951	H95	0.370200	0.308200	0.631300
H961	H96	0.292300	0.121900	0.763800
H971	H97	0.560900	0.005300	0.439600
H981	H98	0.483000	0.990200	0.383100
H991	H99	0.352500	0.234500	0.386700
H1001	H100	0.431200	0.248600	0.440300
H1011	H101	0.975700	0.010900	0.461100
H1021	H102	0.082400	0.004000	0.414700
H1031	H103	0.980300	0.245500	0.388800
H1041	H104	0.873600	0.257400	0.438200
C971	C97	0.176040	0.838640	0.093200
C981	C98	0.189990	0.800990	0.132160
C991	C99	0.193200	0.720800	0.143280
C1001	C100	0.208000	0.682000	0.183650
C1011	C101	0.207200	0.604400	0.181800
C1021	C102	0.190800	0.590400	0.139830
C1031	C103	0.188020	0.515820	0.125630
C1041	C104	0.177240	0.500040	0.083560
C1051	C105	0.171650	0.423450	0.067420
C1061	C106	0.158600	0.435200	0.026790
C1071	C107	0.153870	0.519470	0.016940
C1081	C108	0.138570	0.558570	0.977930
C1091	C109	0.133230	0.640230	0.968190
C1101	C110	0.120400	0.679600	0.928230
C1111	C111	0.120500	0.758300	0.929220
C1121	C112	0.132370	0.769970	0.971820
C1131	C113	0.140340	0.844140	0.985920
C1141	C114	0.154560	0.858360	0.026380
C1151	C115	0.164460	0.932860	0.040040
C1161	C116	0.179940	0.918940	0.081140
C1171	C117	0.205070	0.854070	0.165440
C1181	C118	0.143900	0.912500	0.184680
C1191	C119	0.163200	0.960200	0.214740
C1201	C120	0.243350	0.943750	0.226160
C1211	C121	0.306100	0.883700	0.206900
C1221	C122	0.289100	0.836500	0.176700
C1231	C123	0.258200	0.999000	0.258640
C1241	C124	0.198700	0.446300	0.154870
C1251	C125	0.141900	0.448100	0.185400
C1261	C126	0.154000	0.381600	0.213260
C1271	C127	0.220840	0.311240	0.210470
C1281	C128	0.280000	0.305200	0.180080
C1291	C129	0.268200	0.373600	0.152180
C1301	C130	0.236300	0.235900	0.240050
C1311	C131	0.130480	0.503080	0.943780
C1321	C132	0.051500	0.519500	0.928390
C1331	C133	0.042250	0.471450	0.894860
C1341	C134	0.111800	0.407200	0.879930
C1351	C135	0.187400	0.394400	0.896880
C1361	C136	0.196300	0.442100	0.929060
C1371	C137	0.099200	0.356200	0.846630
C1381	C138	0.132440	0.914840	0.955480
C1391	C139	0.059700	0.976300	0.947170
C1401	C140	0.055100	0.040100	0.918850
C1411	C141	0.124030	0.041630	0.896980
C1421	C142	0.198100	0.979700	0.904020
C1431	C143	0.205900	0.914900	0.933420
C1441	C144	0.122200	0.107800	0.865450
C1451	C145	0.838640	0.176040	0.593200
C1461	C146	0.800990	0.189990	0.632160
C1471	C147	0.720800	0.193200	0.643280
C1481	C148	0.682000	0.208000	0.683650
C1491	C149	0.604400	0.207200	0.681800
C1501	C150	0.590400	0.190800	0.639830
C1511	C151	0.515820	0.188020	0.625630
C1521	C152	0.500040	0.177240	0.583560
C1531	C153	0.423450	0.171650	0.567420
C1541	C154	0.435200	0.158600	0.526790
C1551	C155	0.519470	0.153870	0.516940
C1561	C156	0.558570	0.138570	0.477930
C1571	C157	0.640230	0.133230	0.468190
C1581	C158	0.679600	0.120400	0.428230
C1591	C159	0.758300	0.120500	0.429220
C1601	C160	0.769970	0.132370	0.471820
C1611	C161	0.844140	0.140340	0.485920
C1621	C162	0.858360	0.154560	0.526380
C1631	C163	0.932860	0.164460	0.540040
C1641	C164	0.918940	0.179940	0.581140
C1651	C165	0.854070	0.205070	0.665440
C1661	C166	0.912500	0.143900	0.684680
C1671	C167	0.960200	0.163200	0.714740
C1681	C168	0.943750	0.243350	0.726160
C1691	C169	0.883700	0.306100	0.706900
C1701	C170	0.836500	0.289100	0.676700
C1711	C171	0.999000	0.258200	0.758640
C1721	C172	0.446300	0.198700	0.654870
C1731	C173	0.448100	0.141900	0.685400
C1741	C174	0.381600	0.154000	0.713260
C1751	C175	0.311240	0.220840	0.710470
C1761	C176	0.305200	0.280000	0.680080
C1771	C177	0.373600	0.268200	0.652180
C1781	C178	0.235900	0.236300	0.740050
C1791	C179	0.503080	0.130480	0.443780
C1801	C180	0.519500	0.051500	0.428390
C1811	C181	0.471450	0.042250	0.394860
C1821	C182	0.407200	0.111800	0.379930
C1831	C183	0.394400	0.187400	0.396880
C1841	C184	0.442100	0.196300	0.429060
C1851	C185	0.356200	0.099200	0.346630
C1861	C186	0.914840	0.132440	0.455480
C1871	C187	0.976300	0.059700	0.447170
C1881	C188	0.040100	0.055100	0.418850
C1891	C189	0.041630	0.124030	0.396980
C1901	C190	0.979700	0.198100	0.404020
C1911	C191	0.914900	0.205900	0.433420
C1921	C192	0.107800	0.122200	0.365450
N91	N9	0.181040	0.663440	0.117070
N101	N10	0.164690	0.559690	0.051740
N111	N11	0.139130	0.698730	0.994530
N121	N12	0.162960	0.799760	0.058600
N131	N13	0.663440	0.181040	0.617070
N141	N14	0.559690	0.164690	0.551740
N151	N15	0.698730	0.139130	0.494530
N161	N16	0.799760	0.162960	0.558600
O171	O17	0.336230	0.979830	0.267570
O181	O18	0.199000	0.054800	0.273730
O191	O19	0.298790	0.173990	0.238920
O201	O20	0.172880	0.246280	0.267600
O211	O21	0.157850	0.292250	0.838630
O221	O22	0.030100	0.380300	0.828980
O231	O23	0.179030	0.098830	0.839020
O241	O24	0.060220	0.177220	0.867600
O251	O25	0.979830	0.336230	0.767570
O261	O26	0.054800	0.199000	0.773730
O271	O27	0.173990	0.298790	0.738920
O281	O28	0.246280	0.172880	0.767600
O291	O29	0.292250	0.157850	0.338630
O301	O30	0.380300	0.030100	0.328980
O311	O31	0.098830	0.179030	0.339020
O321	O32	0.177220	0.060220	0.367600
