data_WAXJAJ_clean_PM
_symmetry_space_group_name_H-M	'P1'
_cell_length_a	7.715800
_cell_length_b	16.218000
_cell_length_c	11.266000
_cell_angle_alpha	90.000000
_cell_angle_beta	90.720000
_cell_angle_gamma	90.000000
_symmetry_Int_Tables_number 1

loop_
_symmetry_equiv_pos_as_xyz
'x,y,z'

loop_
_atom_site_label
_atom_site_type_symbol
_atom_site_fract_x
_atom_site_fract_y
_atom_site_fract_z
C11	C1	0.601700	0.550800	0.291500
C21	C2	0.551900	0.072900	0.207800
C31	C3	0.746600	0.137400	0.033600
C41	C4	0.941100	0.216100	0.202700
C51	C5	0.752000	0.149800	0.370300
C61	C6	0.597000	0.236300	0.199300
Co11	Co1	0.748000	0.143660	0.203260
N11	N1	0.510200	0.495200	0.288700
N21	N2	0.433400	0.030100	0.210200
N31	N3	0.747300	0.132500	0.934100
N41	N4	0.056800	0.260100	0.205800
N51	N5	0.753200	0.154600	0.472500
N61	N6	0.504900	0.291600	0.200300
Sr11	Sr1	0.247720	0.400850	0.197840
C71	C7	0.898300	0.050800	0.208500
C81	C8	0.948100	0.572900	0.292200
C91	C9	0.753400	0.637400	0.466400
C101	C10	0.558900	0.716100	0.297300
C111	C11	0.748000	0.649800	0.129700
C121	C12	0.903000	0.736300	0.300700
Co21	Co2	0.752000	0.643660	0.296740
N71	N7	0.989800	0.995200	0.211300
N81	N8	0.066600	0.530100	0.289800
N91	N9	0.752700	0.632500	0.565900
N101	N10	0.443200	0.760100	0.294200
N111	N11	0.746800	0.654600	0.027500
N121	N12	0.995100	0.791600	0.299700
Sr21	Sr2	0.252280	0.900850	0.302160
C131	C13	0.398300	0.449200	0.708500
C141	C14	0.448100	0.927100	0.792200
C151	C15	0.253400	0.862600	0.966400
C161	C16	0.058900	0.783900	0.797300
C171	C17	0.248000	0.850200	0.629700
C181	C18	0.403000	0.763700	0.800700
Co31	Co3	0.252000	0.856340	0.796740
N131	N13	0.489800	0.504800	0.711300
N141	N14	0.566600	0.969900	0.789800
N151	N15	0.252700	0.867500	0.065900
N161	N16	0.943200	0.739900	0.794200
N171	N17	0.246800	0.845400	0.527500
N181	N18	0.495100	0.708400	0.799700
Sr31	Sr3	0.752280	0.599150	0.802160
C191	C19	0.101700	0.949200	0.791500
C201	C20	0.051900	0.427100	0.707800
C211	C21	0.246600	0.362600	0.533600
C221	C22	0.441100	0.283900	0.702700
C231	C23	0.252000	0.350200	0.870300
C241	C24	0.097000	0.263700	0.699300
Co41	Co4	0.248000	0.356340	0.703260
N191	N19	0.010200	0.004800	0.788700
N201	N20	0.933400	0.469900	0.710200
N211	N21	0.247300	0.367500	0.434100
N221	N22	0.556800	0.239900	0.705800
N231	N23	0.253200	0.345400	0.972500
N241	N24	0.004900	0.208400	0.700300
Sr41	Sr4	0.747720	0.099150	0.697840
