data_WAYMIU_manual_PM
_symmetry_space_group_name_H-M	'P1'
_cell_length_a	6.560300
_cell_length_b	15.984600
_cell_length_c	13.444100
_cell_angle_alpha	90.000000
_cell_angle_beta	90.000000
_cell_angle_gamma	90.000000
_symmetry_Int_Tables_number 1

loop_
_symmetry_equiv_pos_as_xyz
'x,y,z'

loop_
_atom_site_label
_atom_site_type_symbol
_atom_site_fract_x
_atom_site_fract_y
_atom_site_fract_z
O11	O1	0.671030	0.921670	0.328940
O21	O2	0.324150	0.580190	0.659300
C31	C3	0.314430	0.780800	0.455330
C41	C4	0.314120	0.711880	0.519630
H51	H5	0.170450	0.805990	0.430350
H61	H6	0.170140	0.685830	0.542880
O71	O7	0.170010	0.421370	0.829240
O81	O8	0.824780	0.080840	0.159440
C91	C9	0.813890	0.281060	0.956090
C101	C10	0.814330	0.212110	0.020180
H111	H11	0.669970	0.306250	0.931160
H121	H12	0.670670	0.185950	0.043380
O131	O13	0.322190	0.082210	0.331710
O141	O14	0.667860	0.423400	0.661930
C151	C15	0.679630	0.220830	0.460920
C161	C16	0.679660	0.289950	0.524950
H171	H17	0.823870	0.195730	0.436230
H181	H18	0.823750	0.316270	0.548400
O191	O19	0.822010	0.582510	0.831350
O201	O20	0.168140	0.923450	0.161850
C211	C21	0.179570	0.721400	0.960200
C221	C22	0.179800	0.790320	0.024470
H231	H23	0.323670	0.696530	0.935160
H241	H24	0.323840	0.816440	0.048300
O251	O25	0.667830	0.082200	0.331090
O261	O26	0.322800	0.424010	0.660230
C271	C27	0.311280	0.221040	0.460670
C281	C28	0.311090	0.290150	0.524750
H291	H29	0.167020	0.196040	0.435880
H301	H30	0.166900	0.316700	0.547840
O311	O31	0.168570	0.582920	0.829880
O321	O32	0.822100	0.923900	0.160630
C331	C33	0.811100	0.721490	0.960030
C341	C34	0.811180	0.790410	0.024330
H351	H35	0.666790	0.696670	0.934990
H361	H36	0.667160	0.816680	0.047900
O371	O37	0.325030	0.921790	0.329480
O381	O38	0.670360	0.580760	0.659370
C391	C39	0.682930	0.780790	0.455560
C401	C40	0.682420	0.711730	0.519940
H411	H41	0.827490	0.805990	0.430570
H421	H42	0.826730	0.685670	0.543450
O431	O43	0.824550	0.422360	0.829920
O441	O44	0.170420	0.080710	0.159750
C451	C45	0.182570	0.281250	0.955960
C461	C46	0.182730	0.212160	0.020130
H471	H47	0.326890	0.306550	0.930930
H481	H48	0.327010	0.186060	0.043470
Al491	Al49	0.744920	0.003130	0.245970
Al501	Al50	0.244020	0.502700	0.746100
Al511	Al51	0.244610	0.003060	0.246450
Al521	Al52	0.744820	0.502920	0.746550
O531	O53	0.994860	0.004670	0.299870
O541	O54	0.494040	0.503920	0.799710
O551	O55	0.495250	0.004790	0.193270
O561	O56	0.993930	0.503710	0.693050
C571	C57	0.497770	0.677740	0.554760
C581	C58	0.498680	0.817290	0.424120
C591	C59	0.497110	0.608490	0.628700
C601	C60	0.498250	0.891570	0.357130
C611	C61	0.998460	0.178100	0.055120
C621	C62	0.997780	0.317630	0.924750
C631	C63	0.997870	0.108740	0.128940
C641	C64	0.997110	0.391860	0.857690
C651	C65	0.495530	0.324740	0.558710
C661	C66	0.495520	0.184930	0.428610
C671	C67	0.495710	0.395170	0.630910
C681	C68	0.495180	0.111720	0.360080
C691	C69	0.995600	0.824890	0.058550
C701	C70	0.995470	0.685580	0.927690
C711	C71	0.995290	0.895190	0.131140
C721	C72	0.995660	0.612280	0.859080
H731	H73	0.992760	0.503770	0.628820
H741	H74	0.492970	0.504240	0.863740
H751	H75	0.495520	0.005730	0.129150
H761	H76	0.994840	0.005420	0.364020
