data_WEBLAQ_charged_PM
_symmetry_space_group_name_H-M	'P1'
_cell_length_a	19.038200
_cell_length_b	21.755600
_cell_length_c	23.834100
_cell_angle_alpha	90.000000
_cell_angle_beta	90.000000
_cell_angle_gamma	97.580000
_symmetry_Int_Tables_number 1

loop_
_symmetry_equiv_pos_as_xyz
'x,y,z'

loop_
_atom_site_label
_atom_site_type_symbol
_atom_site_fract_x
_atom_site_fract_y
_atom_site_fract_z
Cd11	Cd1	0.787300	0.244250	0.757230
Cd21	Cd2	0.230420	0.334110	0.616910
Cd31	Cd3	0.329210	0.159930	0.617600
Cd41	Cd4	0.730280	0.334400	0.636220
Cd51	Cd5	0.287620	0.253370	0.489960
Cd61	Cd6	0.829120	0.160720	0.623510
Cd71	Cd7	0.712700	0.255750	0.257230
Cd81	Cd8	0.269580	0.165890	0.116910
Cd91	Cd9	0.170790	0.340070	0.117600
Cd101	Cd10	0.769720	0.165600	0.136220
Cd111	Cd11	0.212380	0.246630	0.989960
Cd121	Cd12	0.670880	0.339280	0.123510
Cd131	Cd13	0.212700	0.755750	0.242770
Cd141	Cd14	0.769580	0.665890	0.383090
Cd151	Cd15	0.670790	0.840070	0.382400
Cd161	Cd16	0.269720	0.665600	0.363780
Cd171	Cd17	0.712380	0.746630	0.510040
Cd181	Cd18	0.170880	0.839280	0.376490
Cd191	Cd19	0.287300	0.744250	0.742770
Cd201	Cd20	0.730420	0.834110	0.883090
Cd211	Cd21	0.829210	0.659930	0.882400
Cd221	Cd22	0.230280	0.834400	0.863780
Cd231	Cd23	0.787620	0.753370	0.010040
Cd241	Cd24	0.329120	0.660720	0.876490
H11	H1	0.092200	0.120600	0.652200
H21	H2	0.948400	0.213800	0.535900
H31	H3	0.988300	0.260100	0.713300
H41	H4	0.467000	0.371700	0.668700
H51	H5	0.973900	0.107500	0.663200
H61	H6	0.968100	0.377000	0.584400
H71	H7	0.088200	0.385300	0.572800
H81	H8	0.489200	0.265700	0.533700
H91	H9	0.586600	0.377800	0.683200
H101	H10	0.608700	0.281200	0.549100
H111	H11	0.320100	0.172500	0.800700
H121	H12	0.107600	0.276900	0.700400
H131	H13	0.069900	0.234600	0.522900
H141	H14	0.854800	0.990800	0.732700
H151	H15	0.727600	0.335400	0.460700
H161	H16	0.210300	0.323300	0.879700
H171	H17	0.701200	0.058700	0.818600
H181	H18	0.305700	0.176500	0.895500
H191	H19	0.219100	0.319800	0.785100
H201	H20	0.182100	0.492800	0.512100
H211	H21	0.184500	0.073600	0.427100
H221	H22	0.327400	0.991600	0.513600
H231	H23	0.184700	0.583900	0.462600
H241	H24	0.324500	0.439500	0.406200
H251	H25	0.323500	0.530600	0.358400
H261	H26	0.143000	0.980400	0.388800
H271	H27	0.279500	0.898100	0.471200
H281	H28	0.830600	0.901500	0.783800
H291	H29	0.678800	0.966400	0.863600
H301	H30	0.822100	0.183800	0.445000
H311	H31	0.719400	0.337600	0.364800
H321	H32	0.808700	0.188900	0.351000
H331	H33	0.853700	0.428400	0.839100
H341	H34	0.872300	0.524300	0.881800
H351	H35	0.724700	0.583000	0.790600
H361	H36	0.704100	0.490200	0.744300
H371	H37	0.593000	0.122800	0.587900
H381	H38	0.447700	0.209400	0.709000
H391	H39	0.474400	0.113200	0.573400
H401	H40	0.566700	0.227500	0.723400
H411	H41	0.487200	0.355200	0.327100
H421	H42	0.582600	0.335800	0.268900
H431	H43	0.603500	0.189200	0.354700
H441	H44	0.500000	0.202300	0.410300
H451	H45	0.407800	0.379400	0.152200
H461	H46	0.551600	0.286200	0.035900
H471	H47	0.511700	0.239900	0.213300
H481	H48	0.033000	0.128300	0.168700
H491	H49	0.526100	0.392500	0.163200
H501	H50	0.531900	0.123000	0.084400
H511	H51	0.411800	0.114700	0.072800
H521	H52	0.010800	0.234300	0.033700
H531	H53	0.913400	0.122200	0.183200
H541	H54	0.891300	0.218800	0.049100
H551	H55	0.179900	0.327500	0.300700
H561	H56	0.392400	0.223100	0.200400
H571	H57	0.430100	0.265400	0.022900
H581	H58	0.645200	0.509200	0.232700
H591	H59	0.772400	0.164600	0.960700
H601	H60	0.289700	0.176700	0.379700
H611	H61	0.798800	0.441300	0.318600
H621	H62	0.194300	0.323500	0.395500
H631	H63	0.280900	0.180200	0.285100
H641	H64	0.317900	0.007200	0.012100
H651	H65	0.315500	0.426400	0.927100
H661	H66	0.172600	0.508400	0.013600
H671	H67	0.315300	0.916100	0.962600
H681	H68	0.175500	0.060500	0.906200
H691	H69	0.176500	0.969400	0.858400
H701	H70	0.357000	0.519600	0.888800
H711	H71	0.220500	0.601900	0.971200
H721	H72	0.669400	0.598500	0.283800
H731	H73	0.821200	0.533600	0.363600
H741	H74	0.677900	0.316200	0.945000
H751	H75	0.780600	0.162400	0.864800
H761	H76	0.691300	0.311100	0.851000
H771	H77	0.646300	0.071600	0.339100
H781	H78	0.627700	0.975700	0.381800
H791	H79	0.775300	0.917000	0.290600
H801	H80	0.795900	0.009800	0.244300
H811	H81	0.907000	0.377200	0.087900
H821	H82	0.052300	0.290600	0.209000
H831	H83	0.025600	0.386800	0.073400
H841	H84	0.933300	0.272500	0.223400
H851	H85	0.012800	0.144800	0.827100
H861	H86	0.917400	0.164200	0.768900
H871	H87	0.896500	0.310800	0.854700
H881	H88	0.000000	0.297700	0.910300
H891	H89	0.907800	0.879400	0.347800
H901	H90	0.051600	0.786200	0.464100
H911	H91	0.011700	0.739900	0.286700
H921	H92	0.533000	0.628300	0.331300
H931	H93	0.026100	0.892500	0.336800
H941	H94	0.031900	0.623000	0.415600
H951	H95	0.911800	0.614700	0.427200
H961	H96	0.510800	0.734300	0.466300
H971	H97	0.413400	0.622200	0.316800
H981	H98	0.391300	0.718800	0.450900
H991	H99	0.679900	0.827500	0.199300
H1001	H100	0.892400	0.723100	0.299600
H1011	H101	0.930100	0.765400	0.477100
H1021	H102	0.145200	0.009200	0.267300
H1031	H103	0.272400	0.664600	0.539300
H1041	H104	0.789700	0.676700	0.120300
H1051	H105	0.298800	0.941300	0.181400
H1061	H106	0.694300	0.823500	0.104500
H1071	H107	0.780900	0.680200	0.214900
H1081	H108	0.817900	0.507200	0.487900
H1091	H109	0.815500	0.926400	0.572900
H1101	H110	0.672600	0.008400	0.486400
H1111	H111	0.815300	0.416100	0.537400
H1121	H112	0.675500	0.560500	0.593800
H1131	H113	0.676500	0.469400	0.641600
H1141	H114	0.857000	0.019600	0.611200
H1151	H115	0.720500	0.101900	0.528800
H1161	H116	0.169400	0.098500	0.216200
H1171	H117	0.321200	0.033600	0.136400
H1181	H118	0.177900	0.816200	0.555000
H1191	H119	0.280600	0.662400	0.635200
H1201	H120	0.191300	0.811100	0.649000
H1211	H121	0.146300	0.571600	0.160900
H1221	H122	0.127700	0.475700	0.118200
H1231	H123	0.275300	0.417000	0.209400
H1241	H124	0.295900	0.509800	0.255700
H1251	H125	0.407000	0.877200	0.412100
H1261	H126	0.552300	0.790600	0.291000
H1271	H127	0.525600	0.886800	0.426600
H1281	H128	0.433300	0.772500	0.276600
H1291	H129	0.512800	0.644800	0.672900
H1301	H130	0.417400	0.664200	0.731100
H1311	H131	0.396500	0.810800	0.645300
H1321	H132	0.500000	0.797700	0.589700
H1331	H133	0.592200	0.620600	0.847800
H1341	H134	0.448400	0.713800	0.964100
H1351	H135	0.488300	0.760100	0.786700
H1361	H136	0.967000	0.871700	0.831300
H1371	H137	0.473900	0.607500	0.836800
H1381	H138	0.468100	0.877000	0.915600
H1391	H139	0.588200	0.885300	0.927200
H1401	H140	0.989200	0.765700	0.966300
H1411	H141	0.086600	0.877800	0.816800
H1421	H142	0.108700	0.781200	0.950900
H1431	H143	0.820100	0.672500	0.699300
H1441	H144	0.607600	0.776900	0.799600
H1451	H145	0.569900	0.734600	0.977100
H1461	H146	0.354800	0.490800	0.767300
H1471	H147	0.227600	0.835400	0.039300
H1481	H148	0.710300	0.823300	0.620300
H1491	H149	0.201200	0.558700	0.681400
H1501	H150	0.805700	0.676500	0.604500
H1511	H151	0.719100	0.819800	0.714900
H1521	H152	0.682100	0.992800	0.987900
H1531	H153	0.684500	0.573600	0.072900
H1541	H154	0.827400	0.491600	0.986400
H1551	H155	0.684700	0.083900	0.037400
H1561	H156	0.824500	0.939500	0.093800
H1571	H157	0.823500	0.030600	0.141600
H1581	H158	0.643000	0.480400	0.111200
H1591	H159	0.779500	0.398100	0.028800
H1601	H160	0.330600	0.401500	0.716200
H1611	H161	0.178800	0.466400	0.636400
H1621	H162	0.322100	0.683800	0.055000
H1631	H163	0.219400	0.837600	0.135200
H1641	H164	0.308700	0.688900	0.149000
H1651	H165	0.353700	0.928400	0.660900
H1661	H166	0.372300	0.024300	0.618200
H1671	H167	0.224700	0.083000	0.709400
H1681	H168	0.204100	0.990200	0.755700
H1691	H169	0.093000	0.622800	0.912100
H1701	H170	0.947700	0.709400	0.791000
H1711	H171	0.974400	0.613200	0.926600
H1721	H172	0.066700	0.727500	0.776600
H1731	H173	0.987200	0.855200	0.172900
H1741	H174	0.082600	0.835800	0.231100
H1751	H175	0.103500	0.689200	0.145300
H1761	H176	0.000000	0.702300	0.089700
C11	C1	0.963800	0.315400	0.650000
C21	C2	0.463400	0.315100	0.601400
C31	C3	0.064000	0.141400	0.628800
C41	C4	0.798500	0.096600	0.739900
C51	C5	0.978100	0.196200	0.560500
C61	C6	0.007400	0.286100	0.684600
C71	C7	0.494600	0.350900	0.644800
C81	C8	0.094800	0.181100	0.587000
C91	C9	0.993300	0.133500	0.634600
C101	C10	0.995400	0.355200	0.607500
C111	C11	0.386000	0.304000	0.593500
C121	C12	0.067200	0.360500	0.601600
C131	C13	0.884300	0.303900	0.656600
C141	C14	0.275700	0.241500	0.718500
C151	C15	0.507700	0.288900	0.564300
C161	C16	0.173600	0.194700	0.581700
C171	C17	0.774500	0.257700	0.464300
C181	C18	0.253600	0.397000	0.498800
C191	C19	0.782000	0.036500	0.770300
C201	C20	0.779000	0.253900	0.526900
C211	C21	0.290200	0.104600	0.500100
C221	C22	0.673900	0.192100	0.663400
C231	C23	0.566900	0.355600	0.652400
C241	C24	0.579500	0.298200	0.574400
C251	C25	0.296600	0.203200	0.816300
C261	C26	0.078700	0.296000	0.676300
C271	C27	0.051400	0.208500	0.551800
C281	C28	0.260500	0.042900	0.475400
C291	C29	0.270600	0.245600	0.782300
C301	C30	0.819500	0.987500	0.759900
C311	C31	0.253300	0.456000	0.465200
C321	C32	0.777200	0.448600	0.785700
C331	C33	0.744300	0.304700	0.439200
C341	C34	0.231600	0.291500	0.863500
C351	C35	0.728200	0.027200	0.810400
C361	C36	0.763800	0.387300	0.756300
C371	C37	0.287900	0.205900	0.873100
C381	C38	0.237500	0.290300	0.806900
C391	C39	0.211700	0.499900	0.481100
C401	C40	0.204800	0.038500	0.437000
C411	C41	0.289800	0.990400	0.488500
C421	C42	0.213500	0.554900	0.451300
C431	C43	0.295800	0.468300	0.418400
C441	C44	0.295300	0.523300	0.390200
C451	C45	0.180400	0.982600	0.414000
C461	C46	0.260600	0.934200	0.462300
C471	C47	0.804000	0.933700	0.790400
C481	C48	0.715500	0.971800	0.837600
C491	C49	0.799600	0.215200	0.429700
C501	C50	0.739300	0.305300	0.381400
C511	C51	0.791700	0.218800	0.373300
C521	C52	0.827700	0.459500	0.828000
C531	C53	0.838700	0.517500	0.853400
C541	C54	0.752100	0.551900	0.799500
C551	C55	0.738800	0.496000	0.772000
C561	C56	0.564600	0.142100	0.612200
C571	C57	0.477700	0.193200	0.683700
C581	C58	0.493500	0.135700	0.604300
C591	C59	0.595300	0.177600	0.656800
C601	C60	0.548900	0.203400	0.693100
C611	C61	0.426900	0.296200	0.410100
C621	C62	0.487100	0.281800	0.373100
C631	C63	0.509300	0.320100	0.333200
C641	C64	0.568300	0.308600	0.298000
C651	C65	0.579900	0.223000	0.346900
C661	C66	0.516900	0.231000	0.383000
C671	C67	0.536200	0.184600	0.150000
C681	C68	0.036600	0.184900	0.101400
C691	C69	0.436000	0.358600	0.128800
C701	C70	0.701500	0.403400	0.239900
C711	C71	0.521900	0.303800	0.060500
C721	C72	0.492600	0.213900	0.184600
C731	C73	0.005400	0.149100	0.144800
C741	C74	0.405200	0.318900	0.087000
C751	C75	0.506700	0.366500	0.134600
C761	C76	0.504600	0.144800	0.107500
C771	C77	0.114000	0.196000	0.093500
C781	C78	0.432800	0.139500	0.101600
C791	C79	0.615700	0.196100	0.156600
C801	C80	0.224300	0.258500	0.218500
C811	C81	0.992300	0.211100	0.064300
C821	C82	0.326400	0.305300	0.081700
C831	C83	0.725500	0.242300	0.964300
C841	C84	0.246400	0.103000	0.998800
C851	C85	0.718000	0.463500	0.270300
C861	C86	0.721000	0.246100	0.026900
C871	C87	0.209800	0.395400	0.000100
C881	C88	0.826100	0.307900	0.163400
C891	C89	0.933100	0.144400	0.152400
C901	C90	0.920500	0.201800	0.074400
C911	C91	0.203400	0.296800	0.316300
C921	C92	0.421300	0.204000	0.176300
C931	C93	0.448600	0.291500	0.051800
C941	C94	0.239500	0.457100	0.975400
C951	C95	0.229400	0.254400	0.282300
C961	C96	0.680500	0.512500	0.259900
C971	C97	0.246700	0.044000	0.965200
C981	C98	0.722800	0.051400	0.285700
C991	C99	0.755700	0.195300	0.939200
C1001	C100	0.268400	0.208500	0.363500
C1011	C101	0.771800	0.472800	0.310400
C1021	C102	0.736200	0.112700	0.256300
C1031	C103	0.212100	0.294100	0.373100
C1041	C104	0.262500	0.209700	0.306900
C1051	C105	0.288300	0.000100	0.981100
C1061	C106	0.295200	0.461500	0.937000
C1071	C107	0.210200	0.509600	0.988500
C1081	C108	0.286500	0.945100	0.951300
C1091	C109	0.204200	0.031700	0.918400
C1101	C110	0.204700	0.976700	0.890200
C1111	C111	0.319600	0.517400	0.914000
C1121	C112	0.239400	0.565800	0.962300
C1131	C113	0.696000	0.566300	0.290400
C1141	C114	0.784500	0.528200	0.337600
C1151	C115	0.700400	0.284800	0.929700
C1161	C116	0.760700	0.194700	0.881400
C1171	C117	0.708300	0.281200	0.873300
C1181	C118	0.672300	0.040500	0.328000
C1191	C119	0.661300	0.982500	0.353400
C1201	C120	0.747900	0.948100	0.299500
C1211	C121	0.761200	0.004000	0.272000
C1221	C122	0.935400	0.357900	0.112200
C1231	C123	0.022300	0.306800	0.183700
C1241	C124	0.006500	0.364300	0.104300
C1251	C125	0.904700	0.322400	0.156800
C1261	C126	0.951100	0.296600	0.193100
C1271	C127	0.073100	0.203800	0.910100
C1281	C128	0.012900	0.218200	0.873100
C1291	C129	0.990700	0.179900	0.833200
C1301	C130	0.931700	0.191400	0.798000
C1311	C131	0.920100	0.277000	0.846900
C1321	C132	0.983100	0.269000	0.883000
C1331	C133	0.036200	0.684600	0.350000
C1341	C134	0.536600	0.684900	0.398600
C1351	C135	0.936000	0.858600	0.371200
C1361	C136	0.201500	0.903400	0.260100
C1371	C137	0.021900	0.803800	0.439500
C1381	C138	0.992600	0.713900	0.315400
C1391	C139	0.505400	0.649100	0.355200
C1401	C140	0.905200	0.818900	0.413000
C1411	C141	0.006700	0.866500	0.365400
C1421	C142	0.004600	0.644800	0.392500
C1431	C143	0.614000	0.696000	0.406500
C1441	C144	0.932800	0.639500	0.398400
C1451	C145	0.115700	0.696100	0.343400
C1461	C146	0.724300	0.758500	0.281500
C1471	C147	0.492300	0.711100	0.435700
C1481	C148	0.826400	0.805300	0.418300
C1491	C149	0.225500	0.742300	0.535700
C1501	C150	0.746400	0.603000	0.501200
C1511	C151	0.218000	0.963500	0.229700
C1521	C152	0.221000	0.746100	0.473100
C1531	C153	0.709800	0.895400	0.499900
C1541	C154	0.326100	0.807900	0.336600
C1551	C155	0.433100	0.644400	0.347600
C1561	C156	0.420500	0.701800	0.425600
C1571	C157	0.703400	0.796800	0.183700
C1581	C158	0.921300	0.704000	0.323700
C1591	C159	0.948600	0.791500	0.448200
C1601	C160	0.739500	0.957100	0.524600
C1611	C161	0.729400	0.754400	0.217700
C1621	C162	0.180500	0.012500	0.240100
C1631	C163	0.746700	0.544000	0.534800
C1641	C164	0.222800	0.551400	0.214300
C1651	C165	0.255700	0.695300	0.560800
C1661	C166	0.768400	0.708500	0.136500
C1671	C167	0.271800	0.972800	0.189600
C1681	C168	0.236200	0.612700	0.243700
C1691	C169	0.712100	0.794100	0.126900
C1701	C170	0.762500	0.709700	0.193100
C1711	C171	0.788300	0.500100	0.518900
C1721	C172	0.795200	0.961500	0.563000
C1731	C173	0.710200	0.009600	0.511500
C1741	C174	0.786500	0.445100	0.548700
C1751	C175	0.704200	0.531700	0.581600
C1761	C176	0.704700	0.476700	0.609800
C1771	C177	0.819600	0.017400	0.586000
C1781	C178	0.739400	0.065800	0.537700
C1791	C179	0.196000	0.066300	0.209600
C1801	C180	0.284500	0.028200	0.162400
C1811	C181	0.200400	0.784800	0.570300
C1821	C182	0.260700	0.694700	0.618600
C1831	C183	0.208300	0.781200	0.626700
C1841	C184	0.172300	0.540500	0.172000
C1851	C185	0.161300	0.482500	0.146600
C1861	C186	0.247900	0.448100	0.200500
C1871	C187	0.261200	0.504000	0.228000
C1881	C188	0.435400	0.857900	0.387800
C1891	C189	0.522300	0.806800	0.316300
C1901	C190	0.506500	0.864300	0.395700
C1911	C191	0.404700	0.822400	0.343200
C1921	C192	0.451100	0.796600	0.306900
C1931	C193	0.573100	0.703800	0.589900
C1941	C194	0.512900	0.718200	0.626900
C1951	C195	0.490700	0.679900	0.666800
C1961	C196	0.431700	0.691400	0.702000
C1971	C197	0.420100	0.777000	0.653100
C1981	C198	0.483100	0.769000	0.617000
C1991	C199	0.463800	0.815400	0.850000
C2001	C200	0.963400	0.815100	0.898600
C2011	C201	0.564000	0.641400	0.871200
C2021	C202	0.298500	0.596600	0.760100
C2031	C203	0.478100	0.696200	0.939500
C2041	C204	0.507400	0.786100	0.815400
C2051	C205	0.994600	0.850900	0.855200
C2061	C206	0.594800	0.681100	0.913000
C2071	C207	0.493300	0.633500	0.865400
C2081	C208	0.495400	0.855200	0.892500
C2091	C209	0.886000	0.804000	0.906500
C2101	C210	0.567200	0.860500	0.898400
C2111	C211	0.384300	0.803900	0.843400
C2121	C212	0.775700	0.741500	0.781500
C2131	C213	0.007700	0.788900	0.935700
C2141	C214	0.673600	0.694700	0.918300
C2151	C215	0.274500	0.757700	0.035700
C2161	C216	0.753600	0.897000	0.001200
C2171	C217	0.282000	0.536500	0.729700
C2181	C218	0.279000	0.753900	0.973100
C2191	C219	0.790200	0.604600	0.999900
C2201	C220	0.173900	0.692100	0.836600
C2211	C221	0.066900	0.855600	0.847600
C2221	C222	0.079500	0.798200	0.925600
C2231	C223	0.796600	0.703200	0.683700
C2241	C224	0.578700	0.796000	0.823700
C2251	C225	0.551400	0.708500	0.948200
C2261	C226	0.760500	0.542900	0.024600
C2271	C227	0.770600	0.745600	0.717700
C2281	C228	0.319500	0.487500	0.740100
C2291	C229	0.753300	0.956000	0.034800
C2301	C230	0.277200	0.948600	0.714300
C2311	C231	0.244300	0.804700	0.060800
C2321	C232	0.731600	0.791500	0.636500
C2331	C233	0.228200	0.527200	0.689600
C2341	C234	0.263800	0.887300	0.743700
C2351	C235	0.787900	0.705900	0.626900
C2361	C236	0.737500	0.790300	0.693100
C2371	C237	0.711700	0.999900	0.018900
C2381	C238	0.704800	0.538500	0.063000
C2391	C239	0.789800	0.490400	0.011500
C2401	C240	0.713500	0.054900	0.048700
C2411	C241	0.795800	0.968300	0.081600
C2421	C242	0.795300	0.023300	0.109800
C2431	C243	0.680400	0.482600	0.086000
C2441	C244	0.760600	0.434200	0.037700
C2451	C245	0.304000	0.433700	0.709600
C2461	C246	0.215500	0.471800	0.662400
C2471	C247	0.299600	0.715200	0.070300
C2481	C248	0.239300	0.805300	0.118600
C2491	C249	0.291700	0.718800	0.126700
C2501	C250	0.327700	0.959500	0.672000
C2511	C251	0.338700	0.017500	0.646600
C2521	C252	0.252100	0.051900	0.700500
C2531	C253	0.238800	0.996000	0.728000
C2541	C254	0.064600	0.642100	0.887800
C2551	C255	0.977700	0.693200	0.816300
C2561	C256	0.993500	0.635700	0.895700
C2571	C257	0.095300	0.677600	0.843200
C2581	C258	0.048900	0.703400	0.806900
C2591	C259	0.926900	0.796200	0.089900
C2601	C260	0.987100	0.781800	0.126900
C2611	C261	0.009300	0.820100	0.166800
C2621	C262	0.068300	0.808600	0.202000
C2631	C263	0.079900	0.723000	0.153100
C2641	C264	0.016900	0.731000	0.117000
N11	N1	0.948300	0.160800	0.601700
N21	N2	0.109000	0.331700	0.635000
N31	N3	0.245200	0.250700	0.397800
N41	N4	0.744200	0.432900	0.593600
N51	N5	0.792000	0.069500	0.573800
N61	N6	0.610200	0.330000	0.617700
N71	N7	0.752600	0.925200	0.828900
N81	N8	0.739200	0.236900	0.848400
N91	N9	0.803100	0.563700	0.838800
N101	N10	0.449000	0.160800	0.639500
N111	N11	0.896300	0.241900	0.806800
N121	N12	0.551700	0.339200	0.101700
N131	N13	0.391000	0.168300	0.135000
N141	N14	0.254800	0.249300	0.897800
N151	N15	0.755800	0.067100	0.093600
N161	N16	0.708000	0.430500	0.073800
N171	N17	0.889800	0.170000	0.117700
N181	N18	0.747400	0.574800	0.328900
N191	N19	0.760800	0.263100	0.348400
N201	N20	0.696900	0.936300	0.338800
N211	N21	0.051000	0.339200	0.139500
N221	N22	0.603700	0.258100	0.306800
N231	N23	0.051700	0.839200	0.398300
N241	N24	0.891000	0.668300	0.365000
N251	N25	0.754800	0.749300	0.602200
N261	N26	0.255800	0.567100	0.406400
N271	N27	0.208000	0.930500	0.426200
N281	N28	0.389800	0.670000	0.382300
N291	N29	0.247400	0.074800	0.171100
N301	N30	0.260800	0.763100	0.151600
N311	N31	0.196900	0.436300	0.161200
N321	N32	0.551000	0.839200	0.360500
N331	N33	0.103700	0.758100	0.193200
N341	N34	0.448300	0.660800	0.898300
N351	N35	0.609000	0.831700	0.865000
N361	N36	0.745200	0.750700	0.102200
N371	N37	0.244200	0.932900	0.906400
N381	N38	0.292000	0.569500	0.926200
N391	N39	0.110200	0.830000	0.882300
N401	N40	0.252600	0.425200	0.671100
N411	N41	0.239200	0.736900	0.651600
N421	N42	0.303100	0.063700	0.661200
N431	N43	0.949000	0.660800	0.860500
N441	N44	0.396300	0.741900	0.693200
O11	O1	0.360100	0.255500	0.568300
O21	O2	0.697100	0.239800	0.691400
O31	O3	0.821100	0.219400	0.546200
O41	O4	0.839100	0.099500	0.699500
O51	O5	0.197500	0.244500	0.556200
O61	O6	0.859700	0.252400	0.677900
O71	O7	0.710900	0.157400	0.639000
O81	O8	0.235600	0.272400	0.691400
O91	O9	0.739600	0.284600	0.554400
O101	O10	0.335800	0.105000	0.538000
O111	O11	0.718200	0.382000	0.718600
O121	O12	0.768400	0.140400	0.759000
O131	O13	0.350400	0.344800	0.611500
O141	O14	0.216100	0.391800	0.541600
O151	O15	0.849800	0.344700	0.640700
O161	O16	0.209900	0.156800	0.601800
O171	O17	0.320100	0.209600	0.699600
O181	O18	0.291500	0.357800	0.480600
O191	O19	0.801700	0.346600	0.771400
O201	O20	0.265400	0.151100	0.480400
O211	O21	0.399300	0.256000	0.442700
O221	O22	0.412300	0.352800	0.414200
O231	O23	0.139900	0.244500	0.068300
O241	O24	0.802900	0.260200	0.191400
O251	O25	0.678900	0.280600	0.046200
O261	O26	0.660900	0.400500	0.199500
O271	O27	0.302500	0.255500	0.056200
O281	O28	0.640300	0.247600	0.177900
O291	O29	0.789100	0.342600	0.139000
O301	O30	0.264400	0.227600	0.191400
O311	O31	0.760400	0.215400	0.054400
O321	O32	0.164200	0.395000	0.038000
O331	O33	0.781800	0.118000	0.218600
O341	O34	0.731600	0.359600	0.259000
O351	O35	0.149600	0.155200	0.111500
O361	O36	0.283900	0.108200	0.041600
O371	O37	0.650200	0.155300	0.140700
O381	O38	0.290100	0.343200	0.101800
O391	O39	0.179900	0.290400	0.199600
O401	O40	0.208500	0.142200	0.980600
O411	O41	0.698300	0.153400	0.271400
O421	O42	0.234600	0.348900	0.980400
O431	O43	0.100700	0.244000	0.942700
O441	O44	0.087700	0.147200	0.914200
O451	O45	0.639900	0.744500	0.431700
O461	O46	0.302900	0.760200	0.308600
O471	O47	0.178900	0.780600	0.453800
O481	O48	0.160900	0.900500	0.300500
O491	O49	0.802500	0.755500	0.443800
O501	O50	0.140300	0.747600	0.322100
O511	O51	0.289100	0.842600	0.361000
O521	O52	0.764400	0.727600	0.308600
O531	O53	0.260400	0.715400	0.445600
O541	O54	0.664200	0.895000	0.462000
O551	O55	0.281800	0.618000	0.281400
O561	O56	0.231600	0.859600	0.241000
O571	O57	0.649600	0.655200	0.388500
O581	O58	0.783900	0.608200	0.458400
O591	O59	0.150200	0.655300	0.359300
O601	O60	0.790100	0.843200	0.398200
O611	O61	0.679900	0.790400	0.300400
O621	O62	0.708500	0.642200	0.519400
O631	O63	0.198300	0.653400	0.228600
O641	O64	0.734600	0.848900	0.519600
O651	O65	0.600700	0.744000	0.557300
O661	O66	0.587700	0.647200	0.585800
O671	O67	0.860100	0.755500	0.931700
O681	O68	0.197100	0.739800	0.808600
O691	O69	0.321100	0.719400	0.953800
O701	O70	0.339100	0.599500	0.800500
O711	O71	0.697500	0.744500	0.943800
O721	O72	0.359700	0.752400	0.822100
O731	O73	0.210900	0.657400	0.861000
O741	O74	0.735600	0.772400	0.808600
O751	O75	0.239600	0.784600	0.945600
O761	O76	0.835800	0.605000	0.962000
O771	O77	0.218200	0.882000	0.781400
O781	O78	0.268400	0.640400	0.741000
O791	O79	0.850400	0.844800	0.888500
O801	O80	0.716100	0.891800	0.958400
O811	O81	0.349800	0.844700	0.859300
O821	O82	0.709900	0.656800	0.898200
O831	O83	0.820100	0.709600	0.800400
O841	O84	0.791500	0.857800	0.019400
O851	O85	0.301700	0.846600	0.728600
O861	O86	0.765400	0.651100	0.019600
O871	O87	0.899300	0.756000	0.057300
O881	O88	0.912300	0.852800	0.085800
Cl11	Cl1	0.047100	0.030700	0.776500
O891	O89	0.999500	0.053000	0.760400
O901	O90	0.096700	0.069200	0.767900
O911	O91	0.046400	0.024300	0.824000
O921	O92	0.055100	0.987600	0.753800
Cl21	Cl2	0.452900	0.469300	0.276500
O931	O93	0.500500	0.447000	0.260400
O941	O94	0.403300	0.430800	0.267900
O951	O95	0.453600	0.475700	0.324000
O961	O96	0.444900	0.512400	0.253800
Cl31	Cl3	0.952900	0.969300	0.223500
O971	O97	0.000500	0.947000	0.239600
O981	O98	0.903300	0.930800	0.232100
O991	O99	0.953600	0.975700	0.176000
O1001	O100	0.944900	0.012400	0.246200
Cl41	Cl4	0.547100	0.530700	0.723500
O1011	O101	0.499500	0.553000	0.739600
O1021	O102	0.596700	0.569200	0.732100
O1031	O103	0.546400	0.524300	0.676000
O1041	O104	0.555100	0.487600	0.746200
