data_WEBREC_clean_PM
_symmetry_space_group_name_H-M	'P1'
_cell_length_a	13.289000
_cell_length_b	13.711000
_cell_length_c	16.467000
_cell_angle_alpha	90.000000
_cell_angle_beta	90.000000
_cell_angle_gamma	117.020000
_symmetry_Int_Tables_number 1

loop_
_symmetry_equiv_pos_as_xyz
'x,y,z'

loop_
_atom_site_label
_atom_site_type_symbol
_atom_site_fract_x
_atom_site_fract_y
_atom_site_fract_z
Zn11	Zn1	0.092520	0.114220	0.502960
Zn21	Zn2	0.907480	0.385780	0.002960
Zn31	Zn3	0.907480	0.885780	0.497040
Zn41	Zn4	0.092520	0.614220	0.997040
H11	H1	0.335500	0.185900	0.520300
H21	H2	0.506700	0.340200	0.519300
H31	H3	0.341800	0.518900	0.478800
H41	H4	0.175400	0.359000	0.479100
H51	H5	0.925000	0.265500	0.346900
H61	H6	0.837500	0.307400	0.239400
H71	H7	0.705700	0.169100	0.159900
H81	H8	0.745300	0.944500	0.295600
H91	H9	0.509400	0.880000	0.290300
H101	H10	0.424900	0.697700	0.331900
H111	H11	0.566300	0.621100	0.142300
H121	H12	0.651500	0.803500	0.100900
H131	H13	0.333200	0.346100	0.321100
H141	H14	0.148500	0.220200	0.292900
H151	H15	0.041800	0.263800	0.201700
H161	H16	0.302300	0.564800	0.172000
H171	H17	0.664500	0.314100	0.020300
H181	H18	0.493300	0.159800	0.019300
H191	H19	0.658200	0.981100	0.978800
H201	H20	0.824600	0.141000	0.979100
H211	H21	0.075000	0.234500	0.846900
H221	H22	0.162500	0.192600	0.739400
H231	H23	0.294300	0.330900	0.659900
H241	H24	0.254700	0.555500	0.795600
H251	H25	0.490600	0.620000	0.790300
H261	H26	0.575100	0.802300	0.831900
H271	H27	0.433700	0.878900	0.642300
H281	H28	0.348500	0.696500	0.600900
H291	H29	0.666800	0.153900	0.821100
H301	H30	0.851500	0.279800	0.792900
H311	H31	0.958200	0.236200	0.701700
H321	H32	0.697700	0.935200	0.672000
H331	H33	0.664500	0.814100	0.479700
H341	H34	0.493300	0.659800	0.480700
H351	H35	0.658200	0.481100	0.521200
H361	H36	0.824600	0.641000	0.520900
H371	H37	0.075000	0.734500	0.653100
H381	H38	0.162500	0.692600	0.760600
H391	H39	0.294300	0.830900	0.840100
H401	H40	0.254700	0.055500	0.704400
H411	H41	0.490600	0.120000	0.709700
H421	H42	0.575100	0.302300	0.668100
H431	H43	0.433700	0.378900	0.857700
H441	H44	0.348500	0.196500	0.899100
H451	H45	0.666800	0.653900	0.678900
H461	H46	0.851500	0.779800	0.707100
H471	H47	0.958200	0.736200	0.798300
H481	H48	0.697700	0.435200	0.828000
H491	H49	0.335500	0.685900	0.979700
H501	H50	0.506700	0.840200	0.980700
H511	H51	0.341800	0.018900	0.021200
H521	H52	0.175400	0.859000	0.020900
H531	H53	0.925000	0.765500	0.153100
H541	H54	0.837500	0.807400	0.260600
H551	H55	0.705700	0.669100	0.340100
H561	H56	0.745300	0.444500	0.204400
H571	H57	0.509400	0.380000	0.209700
H581	H58	0.424900	0.197700	0.168100
H591	H59	0.566300	0.121100	0.357700
H601	H60	0.651500	0.303500	0.399100
H611	H61	0.333200	0.846100	0.178900
H621	H62	0.148500	0.720200	0.207100
H631	H63	0.041800	0.763800	0.298300
H641	H64	0.302300	0.064800	0.328000
C11	C1	0.337110	0.253680	0.511840
C21	C2	0.440610	0.346520	0.511530
C31	C3	0.445640	0.449120	0.499610
C41	C4	0.342930	0.452340	0.487280
C51	C5	0.242830	0.355460	0.487890
C61	C6	0.902740	0.071150	0.397740
C71	C7	0.844120	0.100930	0.331530
C81	C8	0.871950	0.209850	0.315120
C91	C9	0.819420	0.234750	0.250480
C101	C10	0.740620	0.152140	0.202700
C111	C11	0.714200	0.043500	0.219360
C121	C12	0.764520	0.017210	0.284060
C131	C13	0.589270	0.858220	0.192750
C141	C14	0.521170	0.827990	0.261200
C151	C15	0.470700	0.719380	0.285980
C161	C16	0.489810	0.643750	0.241050
C171	C17	0.555870	0.673480	0.172000
C181	C18	0.606610	0.782170	0.147230
C191	C19	0.335190	0.467370	0.249230
C201	C20	0.289780	0.364070	0.285550
C211	C21	0.179660	0.288640	0.268170
C221	C22	0.115380	0.315020	0.213710
C231	C23	0.161280	0.418140	0.177270
C241	C24	0.271700	0.495580	0.195420
C251	C25	0.094000	0.445910	0.116650
C261	C26	0.662890	0.246320	0.011840
C271	C27	0.559390	0.153480	0.011530
C281	C28	0.554360	0.050880	0.999610
C291	C29	0.657070	0.047660	0.987280
C301	C30	0.757170	0.144540	0.987890
C311	C31	0.097260	0.428850	0.897740
C321	C32	0.155880	0.399070	0.831530
C331	C33	0.128050	0.290150	0.815120
C341	C34	0.180580	0.265250	0.750480
C351	C35	0.259380	0.347860	0.702700
C361	C36	0.285800	0.456500	0.719360
C371	C37	0.235480	0.482790	0.784060
C381	C38	0.410730	0.641780	0.692750
C391	C39	0.478830	0.672010	0.761200
C401	C40	0.529300	0.780620	0.785980
C411	C41	0.510190	0.856250	0.741050
C421	C42	0.444130	0.826520	0.672000
C431	C43	0.393390	0.717830	0.647230
C441	C44	0.664810	0.032630	0.749230
C451	C45	0.710220	0.135930	0.785550
C461	C46	0.820340	0.211360	0.768170
C471	C47	0.884620	0.184980	0.713710
C481	C48	0.838720	0.081860	0.677270
C491	C49	0.728300	0.004420	0.695420
C501	C50	0.906000	0.054090	0.616650
C511	C51	0.662890	0.746320	0.488160
C521	C52	0.559390	0.653480	0.488470
C531	C53	0.554360	0.550880	0.500390
C541	C54	0.657070	0.547660	0.512720
C551	C55	0.757170	0.644540	0.512110
C561	C56	0.097260	0.928850	0.602260
C571	C57	0.155880	0.899070	0.668470
C581	C58	0.128050	0.790150	0.684880
C591	C59	0.180580	0.765250	0.749520
C601	C60	0.259380	0.847860	0.797300
C611	C61	0.285800	0.956500	0.780640
C621	C62	0.235480	0.982790	0.715940
C631	C63	0.410730	0.141780	0.807250
C641	C64	0.478830	0.172010	0.738800
C651	C65	0.529300	0.280620	0.714020
C661	C66	0.510190	0.356250	0.758950
C671	C67	0.444130	0.326520	0.828000
C681	C68	0.393390	0.217830	0.852770
C691	C69	0.664810	0.532630	0.750770
C701	C70	0.710220	0.635930	0.714450
C711	C71	0.820340	0.711360	0.731830
C721	C72	0.884620	0.684980	0.786290
C731	C73	0.838720	0.581860	0.822730
C741	C74	0.728300	0.504420	0.804580
C751	C75	0.906000	0.554090	0.883350
C761	C76	0.337110	0.753680	0.988160
C771	C77	0.440610	0.846520	0.988470
C781	C78	0.445640	0.949120	0.000390
C791	C79	0.342930	0.952340	0.012720
C801	C80	0.242830	0.855460	0.012110
C811	C81	0.902740	0.571150	0.102260
C821	C82	0.844120	0.600930	0.168470
C831	C83	0.871950	0.709850	0.184880
C841	C84	0.819420	0.734750	0.249520
C851	C85	0.740620	0.652140	0.297300
C861	C86	0.714200	0.543500	0.280640
C871	C87	0.764520	0.517210	0.215940
C881	C88	0.589270	0.358220	0.307250
C891	C89	0.521170	0.327990	0.238800
C901	C90	0.470700	0.219380	0.214020
C911	C91	0.489810	0.143750	0.258950
C921	C92	0.555870	0.173480	0.328000
C931	C93	0.606610	0.282170	0.352770
C941	C94	0.335190	0.967370	0.250770
C951	C95	0.289780	0.864070	0.214450
C961	C96	0.179660	0.788640	0.231830
C971	C97	0.115380	0.815020	0.286290
C981	C98	0.161280	0.918140	0.322730
C991	C99	0.271700	0.995580	0.304580
C1001	C100	0.094000	0.945910	0.383350
N11	N1	0.238790	0.257810	0.500430
N21	N2	0.761210	0.242190	0.000430
N31	N3	0.761210	0.742190	0.499570
N41	N4	0.238790	0.757810	0.999570
O11	O1	0.992170	0.146790	0.426110
O21	O2	0.859170	0.972300	0.418820
O31	O3	0.639240	0.966130	0.166760
O41	O4	0.445540	0.535760	0.268470
O51	O5	0.135860	0.542990	0.091290
O61	O6	0.000720	0.369270	0.094900
O71	O7	0.007830	0.353210	0.926110
O81	O8	0.140830	0.527700	0.918820
O91	O9	0.360760	0.533870	0.666760
O101	O10	0.554460	0.964240	0.768470
O111	O11	0.864140	0.957010	0.591290
O121	O12	0.999280	0.130730	0.594900
O131	O13	0.007830	0.853210	0.573890
O141	O14	0.140830	0.027700	0.581180
O151	O15	0.360760	0.033870	0.833240
O161	O16	0.554460	0.464240	0.731530
O171	O17	0.864140	0.457010	0.908710
O181	O18	0.999280	0.630730	0.905100
O191	O19	0.992170	0.646790	0.073890
O201	O20	0.859170	0.472300	0.081180
O211	O21	0.639240	0.466130	0.333240
O221	O22	0.445540	0.035760	0.231530
O231	O23	0.135860	0.042990	0.408710
O241	O24	0.000720	0.869270	0.405100
