data_WECBEN_clean_PM
_symmetry_space_group_name_H-M	'P1'
_cell_length_a	9.417800
_cell_length_b	15.457200
_cell_length_c	18.245100
_cell_angle_alpha	95.399000
_cell_angle_beta	91.352000
_cell_angle_gamma	90.312000
_symmetry_Int_Tables_number 1

loop_
_symmetry_equiv_pos_as_xyz
'x,y,z'

loop_
_atom_site_label
_atom_site_type_symbol
_atom_site_fract_x
_atom_site_fract_y
_atom_site_fract_z
Zn11	Zn1	0.253410	0.088700	0.029750
Zn21	Zn2	0.121120	0.417880	0.112140
Zn31	Zn3	0.110700	0.583180	0.387370
Zn41	Zn4	0.250040	0.914450	0.469210
O11	O1	0.312400	0.211700	0.005900
O21	O2	0.166600	0.160400	0.119200
O31	O3	0.266900	0.349700	0.044900
O41	O4	0.097300	0.296000	0.148000
O51	O5	0.978200	0.470900	0.189500
O61	O6	0.261000	0.469600	0.196500
O71	O7	0.972200	0.530600	0.304600
O81	O8	0.256700	0.536800	0.309000
O91	O9	0.086900	0.704700	0.351900
O101	O10	0.253200	0.654300	0.460600
O111	O11	0.158800	0.841300	0.380400
O121	O12	0.303800	0.791000	0.496900
O131	O13	0.362200	0.023800	0.940180
O141	O14	0.054200	0.097500	0.968100
O151	O15	0.556100	0.945800	0.917860
O161	O16	0.850000	0.026100	0.949200
O171	O17	0.960200	0.398400	0.028300
O181	O18	0.861500	0.467700	0.939100
O191	O19	0.953300	0.598900	0.468400
O201	O20	0.865100	0.531500	0.559800
O211	O21	0.434000	0.948500	0.417500
O221	O22	0.146900	0.028600	0.451200
O231	O23	0.945200	0.099400	0.471900
O241	O24	0.631200	0.026600	0.440160
C11	C1	0.255800	0.269400	0.048100
C21	C2	0.165000	0.239000	0.110700
C31	C3	0.033900	0.501200	0.247700
C41	C4	0.199000	0.502700	0.252200
C51	C5	0.156500	0.763400	0.390500
C61	C6	0.245100	0.733000	0.455000
C71	C7	0.477400	0.991200	0.959600
C81	C8	0.971900	0.035000	0.976200
C91	C9	0.948500	0.461300	0.990700
C101	C10	0.947200	0.537100	0.507600
C111	C11	0.027200	0.036300	0.477900
C121	C12	0.517400	0.992500	0.459300
Zn51	Zn5	0.746590	0.911300	0.970250
Zn61	Zn6	0.878880	0.582120	0.887860
Zn71	Zn7	0.889300	0.416820	0.612630
Zn81	Zn8	0.749960	0.085550	0.530790
O251	O25	0.687600	0.788300	0.994100
O261	O26	0.833400	0.839600	0.880800
O271	O27	0.733100	0.650300	0.955100
O281	O28	0.902700	0.704000	0.852000
O291	O29	0.021800	0.529100	0.810500
O301	O30	0.739000	0.530400	0.803500
O311	O31	0.027800	0.469400	0.695400
O321	O32	0.743300	0.463200	0.691000
O331	O33	0.913100	0.295300	0.648100
O341	O34	0.746800	0.345700	0.539400
O351	O35	0.841200	0.158700	0.619600
O361	O36	0.696200	0.209000	0.503100
O371	O37	0.637800	0.976200	0.059820
O381	O38	0.945800	0.902500	0.031900
O391	O39	0.443900	0.054200	0.082140
O401	O40	0.150000	0.973900	0.050800
O411	O41	0.039800	0.601600	0.971700
O421	O42	0.138500	0.532300	0.060900
O431	O43	0.046700	0.401100	0.531600
O441	O44	0.134900	0.468500	0.440200
O451	O45	0.566000	0.051500	0.582500
O461	O46	0.853100	0.971400	0.548800
O471	O47	0.054800	0.900600	0.528100
O481	O48	0.368800	0.973400	0.559840
C131	C13	0.744200	0.730600	0.951900
C141	C14	0.835000	0.761000	0.889300
C151	C15	0.966100	0.498800	0.752300
C161	C16	0.801000	0.497300	0.747800
C171	C17	0.843500	0.236600	0.609500
C181	C18	0.754900	0.267000	0.545000
C191	C19	0.522600	0.008800	0.040400
C201	C20	0.028100	0.965000	0.023800
C211	C21	0.051500	0.538700	0.009300
C221	C22	0.052800	0.462900	0.492400
C231	C23	0.972800	0.963700	0.522100
C241	C24	0.482600	0.007500	0.540700
