data_WECFAN01_clean_PM
_symmetry_space_group_name_H-M	'P1'
_cell_length_a	8.276000
_cell_length_b	14.360000
_cell_length_c	14.750000
_cell_angle_alpha	90.000000
_cell_angle_beta	90.000000
_cell_angle_gamma	99.746000
_symmetry_Int_Tables_number 1

loop_
_symmetry_equiv_pos_as_xyz
'x,y,z'

loop_
_atom_site_label
_atom_site_type_symbol
_atom_site_fract_x
_atom_site_fract_y
_atom_site_fract_z
Co11	Co1	0.907250	0.120090	0.082390
Co21	Co2	0.592750	0.879910	0.582390
Co31	Co3	0.092750	0.879910	0.917610
Co41	Co4	0.407250	0.120090	0.417610
H11	H1	0.493400	0.839500	0.301800
H21	H2	0.652500	0.924900	0.056500
H31	H3	0.503900	0.764900	0.075700
H41	H4	0.348900	0.801800	0.112100
H51	H5	0.352200	0.714300	0.238100
H61	H6	0.344900	0.650500	0.151400
H71	H7	0.510600	0.678900	0.203900
H81	H8	0.252300	0.210100	0.106300
H91	H9	0.440500	0.340900	0.076700
H101	H10	0.109800	0.437600	0.926100
H111	H11	0.926100	0.306800	0.961900
H121	H12	0.369000	0.551500	0.999600
H131	H13	0.429100	0.503500	0.913300
H141	H14	0.006600	0.160500	0.801800
H151	H15	0.847500	0.075100	0.556500
H161	H16	0.996100	0.235100	0.575700
H171	H17	0.151100	0.198200	0.612100
H181	H18	0.147800	0.285700	0.738100
H191	H19	0.155100	0.349500	0.651400
H201	H20	0.989400	0.321100	0.703900
H211	H21	0.247700	0.789900	0.606300
H221	H22	0.059500	0.659100	0.576700
H231	H23	0.390200	0.562400	0.426100
H241	H24	0.573900	0.693200	0.461900
H251	H25	0.131000	0.448500	0.499600
H261	H26	0.070900	0.496500	0.413300
H271	H27	0.506600	0.160500	0.698200
H281	H28	0.347500	0.075100	0.943500
H291	H29	0.496100	0.235100	0.924300
H301	H30	0.651100	0.198200	0.887900
H311	H31	0.647800	0.285700	0.761900
H321	H32	0.655100	0.349500	0.848600
H331	H33	0.489400	0.321100	0.796100
H341	H34	0.747700	0.789900	0.893700
H351	H35	0.559500	0.659100	0.923300
H361	H36	0.890200	0.562400	0.073900
H371	H37	0.073900	0.693200	0.038100
H381	H38	0.631000	0.448500	0.000400
H391	H39	0.570900	0.496500	0.086700
H401	H40	0.993400	0.839500	0.198200
H411	H41	0.152500	0.924900	0.443500
H421	H42	0.003900	0.764900	0.424300
H431	H43	0.848900	0.801800	0.387900
H441	H44	0.852200	0.714300	0.261900
H451	H45	0.844900	0.650500	0.348600
H461	H46	0.010600	0.678900	0.296100
H471	H47	0.752300	0.210100	0.393700
H481	H48	0.940500	0.340900	0.423300
H491	H49	0.609800	0.437600	0.573900
H501	H50	0.426100	0.306800	0.538100
H511	H51	0.869000	0.551500	0.500400
H521	H52	0.929100	0.503500	0.586700
C11	C1	0.764400	0.019200	0.244900
C21	C2	0.663400	0.959500	0.302600
C31	C3	0.561100	0.881400	0.264400
C41	C4	0.559900	0.866100	0.173100
C51	C5	0.658500	0.932200	0.119100
C61	C6	0.897200	0.098500	0.277200
C71	C7	0.648400	0.975900	0.404200
C81	C8	0.450600	0.782100	0.130300
C91	C9	0.411400	0.699700	0.185400
C101	C10	0.221800	0.257000	0.069700
C111	C11	0.335800	0.336100	0.052300
C121	C12	0.299600	0.406600	0.001000
C131	C13	0.140900	0.392400	0.964600
C141	C14	0.031900	0.313000	0.985200
C151	C15	0.416500	0.498100	0.978600
C161	C16	0.735600	0.980800	0.744900
C171	C17	0.836600	0.040500	0.802600
C181	C18	0.938900	0.118600	0.764400
C191	C19	0.940100	0.133900	0.673100
C201	C20	0.841500	0.067800	0.619100
C211	C21	0.602800	0.901500	0.777200
C221	C22	0.851600	0.024100	0.904200
C231	C23	0.049400	0.217900	0.630300
C241	C24	0.088600	0.300300	0.685400
C251	C25	0.278200	0.743000	0.569700
C261	C26	0.164200	0.663900	0.552300
C271	C27	0.200400	0.593400	0.501000
C281	C28	0.359100	0.607600	0.464600
C291	C29	0.468100	0.687000	0.485200
C301	C30	0.083500	0.501900	0.478600
C311	C31	0.235600	0.980800	0.755100
C321	C32	0.336600	0.040500	0.697400
C331	C33	0.438900	0.118600	0.735600
C341	C34	0.440100	0.133900	0.826900
C351	C35	0.341500	0.067800	0.880900
C361	C36	0.102800	0.901500	0.722800
C371	C37	0.351600	0.024100	0.595800
C381	C38	0.549400	0.217900	0.869700
C391	C39	0.588600	0.300300	0.814600
C401	C40	0.778200	0.743000	0.930300
C411	C41	0.664200	0.663900	0.947700
C421	C42	0.700400	0.593400	0.999000
C431	C43	0.859100	0.607600	0.035400
C441	C44	0.968100	0.687000	0.014800
C451	C45	0.583500	0.501900	0.021400
C461	C46	0.264400	0.019200	0.255100
C471	C47	0.163400	0.959500	0.197400
C481	C48	0.061100	0.881400	0.235600
C491	C49	0.059900	0.866100	0.326900
C501	C50	0.158500	0.932200	0.380900
C511	C51	0.397200	0.098500	0.222800
C521	C52	0.148400	0.975900	0.095800
C531	C53	0.950600	0.782100	0.369700
C541	C54	0.911400	0.699700	0.314600
C551	C55	0.721800	0.257000	0.430300
C561	C56	0.835800	0.336100	0.447700
C571	C57	0.799600	0.406600	0.499000
C581	C58	0.640900	0.392400	0.535400
C591	C59	0.531900	0.313000	0.514800
C601	C60	0.916500	0.498100	0.521400
N11	N1	0.762300	0.006400	0.153200
N21	N2	0.069800	0.244000	0.036900
N31	N3	0.737700	0.993600	0.653200
N41	N4	0.430200	0.756000	0.536900
N51	N5	0.237700	0.993600	0.846800
N61	N6	0.930200	0.756000	0.963100
N71	N7	0.262300	0.006400	0.346800
N81	N8	0.569800	0.244000	0.463100
O11	O1	0.959000	0.157600	0.217100
O21	O2	0.934900	0.099800	0.357800
O31	O3	0.606600	0.050100	0.429400
O41	O4	0.673500	0.909000	0.452400
O51	O5	0.541000	0.842400	0.717100
O61	O6	0.565100	0.900200	0.857800
O71	O7	0.893400	0.949900	0.929400
O81	O8	0.826500	0.091000	0.952400
O91	O9	0.041000	0.842400	0.782900
O101	O10	0.065100	0.900200	0.642200
O111	O11	0.393400	0.949900	0.570600
O121	O12	0.326500	0.091000	0.547600
O131	O13	0.459000	0.157600	0.282900
O141	O14	0.434900	0.099800	0.142200
O151	O15	0.106600	0.050100	0.070600
O161	O16	0.173500	0.909000	0.047600
