data_WECFAN_clean_PM
_symmetry_space_group_name_H-M	'P1'
_cell_length_a	8.385200
_cell_length_b	14.711000
_cell_length_c	15.771000
_cell_angle_alpha	90.000000
_cell_angle_beta	102.485000
_cell_angle_gamma	90.000000
_symmetry_Int_Tables_number 1

loop_
_symmetry_equiv_pos_as_xyz
'x,y,z'

loop_
_atom_site_label
_atom_site_type_symbol
_atom_site_fract_x
_atom_site_fract_y
_atom_site_fract_z
Co11	Co1	0.168330	0.917240	0.610300
Co21	Co2	0.331670	0.417240	0.389700
Co31	Co3	0.831670	0.082760	0.389700
Co41	Co4	0.668330	0.582760	0.610300
H11	H1	0.398300	0.698800	0.356300
H21	H2	0.283900	0.944200	0.431200
H31	H3	0.347200	0.932200	0.293700
H41	H4	0.517500	0.884700	0.320000
H51	H5	0.433700	0.769300	0.227900
H61	H6	0.389800	0.860300	0.176400
H71	H7	0.253500	0.805300	0.208200
H81	H8	0.892000	0.898100	0.704800
H91	H9	0.816100	0.934700	0.831100
H101	H10	0.211500	0.089300	0.894200
H111	H11	0.280800	0.046400	0.767600
H121	H12	0.847000	0.035400	0.958100
H131	H13	0.005900	0.094300	0.985000
H141	H14	0.101700	0.198800	0.643700
H151	H15	0.216100	0.444200	0.568800
H161	H16	0.152800	0.432200	0.706300
H171	H17	0.982500	0.384700	0.680000
H181	H18	0.066300	0.269300	0.772100
H191	H19	0.110200	0.360300	0.823600
H201	H20	0.246500	0.305300	0.791800
H211	H21	0.608000	0.398100	0.295200
H221	H22	0.683900	0.434700	0.168900
H231	H23	0.288500	0.589300	0.105800
H241	H24	0.219200	0.546400	0.232400
H251	H25	0.653000	0.535400	0.041900
H261	H26	0.494100	0.594300	0.015000
H271	H27	0.601700	0.301200	0.643700
H281	H28	0.716100	0.055800	0.568800
H291	H29	0.652800	0.067800	0.706300
H301	H30	0.482500	0.115300	0.680000
H311	H31	0.566300	0.230700	0.772100
H321	H32	0.610200	0.139700	0.823600
H331	H33	0.746500	0.194700	0.791800
H341	H34	0.108000	0.101900	0.295200
H351	H35	0.183900	0.065300	0.168900
H361	H36	0.788500	0.910700	0.105800
H371	H37	0.719200	0.953600	0.232400
H381	H38	0.153000	0.964600	0.041900
H391	H39	0.994100	0.905700	0.015000
H401	H40	0.898300	0.801200	0.356300
H411	H41	0.783900	0.555800	0.431200
H421	H42	0.847200	0.567800	0.293700
H431	H43	0.017500	0.615300	0.320000
H441	H44	0.933700	0.730700	0.227900
H451	H45	0.889800	0.639700	0.176400
H461	H46	0.753500	0.694700	0.208200
H471	H47	0.392000	0.601900	0.704800
H481	H48	0.316100	0.565300	0.831100
H491	H49	0.711500	0.410700	0.894200
H501	H50	0.780800	0.453600	0.767600
H511	H51	0.347000	0.464600	0.958100
H521	H52	0.505900	0.405700	0.985000
C11	C1	0.245800	0.755240	0.519010
C21	C2	0.310000	0.697790	0.464830
C31	C3	0.358400	0.736120	0.394540
C41	C4	0.348700	0.828890	0.379580
C51	C5	0.289200	0.881470	0.438910
C61	C6	0.168800	0.722030	0.591660
C71	C7	0.336200	0.596810	0.479530
C81	C8	0.400900	0.873500	0.303830
C91	C9	0.366500	0.822700	0.222100
C101	C10	0.959500	0.936000	0.744200
C111	C11	0.913000	0.958000	0.820200
C121	C12	0.008000	0.013700	0.879940
C131	C13	0.145500	0.048400	0.857400
C141	C14	0.186000	0.022800	0.780600
C151	C15	0.964900	0.034400	0.965700
C161	C16	0.254200	0.255240	0.480990
C171	C17	0.190000	0.197790	0.535170
C181	C18	0.141600	0.236120	0.605460
C191	C19	0.151300	0.328890	0.620420
C201	C20	0.210800	0.381470	0.561090
C211	C21	0.331200	0.222030	0.408340
C221	C22	0.163800	0.096810	0.520470
C231	C23	0.099100	0.373500	0.696170
C241	C24	0.133500	0.322700	0.777900
C251	C25	0.540500	0.436000	0.255800
C261	C26	0.587000	0.458000	0.179800
C271	C27	0.492000	0.513700	0.120060
C281	C28	0.354500	0.548400	0.142600
C291	C29	0.314000	0.522800	0.219400
C301	C30	0.535100	0.534400	0.034300
C311	C31	0.754200	0.244760	0.480990
C321	C32	0.690000	0.302210	0.535170
C331	C33	0.641600	0.263880	0.605460
C341	C34	0.651300	0.171110	0.620420
C351	C35	0.710800	0.118530	0.561090
C361	C36	0.831200	0.277970	0.408340
C371	C37	0.663800	0.403190	0.520470
C381	C38	0.599100	0.126500	0.696170
C391	C39	0.633500	0.177300	0.777900
C401	C40	0.040500	0.064000	0.255800
C411	C41	0.087000	0.042000	0.179800
C421	C42	0.992000	0.986300	0.120060
C431	C43	0.854500	0.951600	0.142600
C441	C44	0.814000	0.977200	0.219400
C451	C45	0.035100	0.965600	0.034300
C461	C46	0.745800	0.744760	0.519010
C471	C47	0.810000	0.802210	0.464830
C481	C48	0.858400	0.763880	0.394540
C491	C49	0.848700	0.671110	0.379580
C501	C50	0.789200	0.618530	0.438910
C511	C51	0.668800	0.777970	0.591660
C521	C52	0.836200	0.903190	0.479530
C531	C53	0.900900	0.626500	0.303830
C541	C54	0.866500	0.677300	0.222100
C551	C55	0.459500	0.564000	0.744200
C561	C56	0.413000	0.542000	0.820200
C571	C57	0.508000	0.486300	0.879940
C581	C58	0.645500	0.451600	0.857400
C591	C59	0.686000	0.477200	0.780600
C601	C60	0.464900	0.465600	0.965700
N11	N1	0.239000	0.845780	0.506800
N21	N2	0.096700	0.966380	0.724590
N31	N3	0.261000	0.345780	0.493200
N41	N4	0.403300	0.466380	0.275410
N51	N5	0.761000	0.154220	0.493200
N61	N6	0.903300	0.033620	0.275410
N71	N7	0.739000	0.654220	0.506800
N81	N8	0.596700	0.533620	0.724590
O11	O1	0.142600	0.782170	0.645240
O21	O2	0.134300	0.640560	0.593930
O31	O3	0.427400	0.569840	0.548110
O41	O4	0.268000	0.546970	0.417390
O51	O5	0.357400	0.282170	0.354760
O61	O6	0.365700	0.140560	0.406070
O71	O7	0.072600	0.069840	0.451890
O81	O8	0.232000	0.046970	0.582610
O91	O9	0.857400	0.217830	0.354760
O101	O10	0.865700	0.359440	0.406070
O111	O11	0.572600	0.430160	0.451890
O121	O12	0.732000	0.453030	0.582610
O131	O13	0.642600	0.717830	0.645240
O141	O14	0.634300	0.859440	0.593930
O151	O15	0.927400	0.930160	0.548110
O161	O16	0.768000	0.953030	0.417390
