data_WEDWUZ_clean_PM
_symmetry_space_group_name_H-M	'P1'
_cell_length_a	9.851000
_cell_length_b	14.822000
_cell_length_c	20.233000
_cell_angle_alpha	73.448000
_cell_angle_beta	82.987000
_cell_angle_gamma	77.721000
_symmetry_Int_Tables_number 1

loop_
_symmetry_equiv_pos_as_xyz
'x,y,z'

loop_
_atom_site_label
_atom_site_type_symbol
_atom_site_fract_x
_atom_site_fract_y
_atom_site_fract_z
Sm11	Sm1	0.336270	0.047010	0.811610
Sm21	Sm2	0.870430	0.052200	0.796660
Sm31	Sm3	0.663730	0.952990	0.188390
Sm41	Sm4	0.129570	0.947800	0.203340
Cu11	Cu1	0.671790	0.496980	0.885380
Cu21	Cu2	0.406380	0.512790	0.947020
Cu31	Cu3	0.258930	0.560950	0.658590
Cu41	Cu4	0.901640	0.400140	0.446650
Cu51	Cu5	0.226120	0.743450	0.571540
Cu61	Cu6	0.014600	0.668650	0.672920
Cu71	Cu7	0.328210	0.503020	0.114620
Cu81	Cu8	0.593620	0.487210	0.052980
Cu91	Cu9	0.741070	0.439050	0.341410
Cu101	Cu10	0.098360	0.599860	0.553350
Cu111	Cu11	0.773880	0.256550	0.428460
Cu121	Cu12	0.985400	0.331350	0.327080
H11	H1	0.960000	0.544000	0.855500
H21	H2	0.183100	0.466600	0.846700
H31	H3	0.229300	0.302800	0.853600
H41	H4	0.818800	0.313400	0.864200
H51	H5	0.104300	0.537200	0.973300
H61	H6	0.908800	0.650100	0.963400
H71	H7	0.925900	0.811400	0.920000
H81	H8	0.339000	0.727100	0.910700
H91	H9	0.353200	0.353900	0.721900
H101	H10	0.768100	0.300900	0.720000
H111	H11	0.764700	0.457300	0.654300
H121	H12	0.558100	0.556000	0.623600
H131	H13	0.930500	0.281400	0.587300
H141	H14	0.319600	0.248800	0.641400
H151	H15	0.357700	0.368500	0.540600
H161	H16	0.187100	0.432600	0.466000
H171	H17	0.504700	0.789300	0.504600
H181	H18	0.668700	0.872700	0.515700
H191	H19	0.624900	0.958200	0.597800
H201	H20	0.256300	0.878300	0.645800
H211	H21	0.882100	0.801200	0.755200
H221	H22	0.477200	0.788000	0.796600
H231	H23	0.517500	0.660700	0.746200
H241	H24	0.736000	0.605800	0.705800
H251	H25	0.040000	0.456000	0.144500
H261	H26	0.816900	0.533400	0.153300
H271	H27	0.770700	0.697200	0.146400
H281	H28	0.181200	0.686600	0.135800
H291	H29	0.895700	0.462800	0.026700
H301	H30	0.091200	0.349900	0.036600
H311	H31	0.074100	0.188600	0.080000
H321	H32	0.661000	0.272900	0.089300
H331	H33	0.646800	0.646100	0.278100
H341	H34	0.231900	0.699100	0.280000
H351	H35	0.235300	0.542700	0.345700
H361	H36	0.441900	0.444000	0.376400
H371	H37	0.069500	0.718600	0.412700
H381	H38	0.680400	0.751200	0.358600
H391	H39	0.642300	0.631500	0.459400
H401	H40	0.812900	0.567400	0.534000
H411	H41	0.495300	0.210700	0.495400
H421	H42	0.331300	0.127300	0.484300
H431	H43	0.375100	0.041800	0.402200
H441	H44	0.743700	0.121700	0.354200
H451	H45	0.117900	0.198800	0.244800
H461	H46	0.522800	0.212000	0.203400
H471	H47	0.482500	0.339300	0.253800
H481	H48	0.264000	0.394200	0.294200
C11	C1	0.976500	0.479600	0.856200
C21	C2	0.110400	0.433500	0.851700
C31	C3	0.138200	0.336400	0.854800
C41	C4	0.026700	0.291500	0.859600
C51	C5	0.893200	0.343800	0.862100
C61	C6	0.046100	0.187000	0.861000
C71	C7	0.113800	0.601000	0.957300
C81	C8	0.995300	0.668100	0.951100
C91	C9	0.005000	0.763600	0.926300
C101	C10	0.135900	0.785200	0.911200
C111	C11	0.251000	0.711200	0.920400
C121	C12	0.158200	0.886700	0.884800
C131	C13	0.437400	0.374900	0.708700
C141	C14	0.559100	0.310200	0.728000
C151	C15	0.684100	0.341800	0.707600
C161	C16	0.681800	0.434800	0.668600
C171	C17	0.557500	0.494000	0.651100
C181	C18	0.552300	0.210300	0.771700
C191	C19	0.018100	0.298000	0.577800
C201	C20	0.117400	0.253700	0.625900
C211	C21	0.249200	0.278400	0.611300
C221	C22	0.272500	0.348500	0.550700
C231	C23	0.169300	0.387000	0.506700
C241	C24	0.082300	0.183900	0.690500
C251	C25	0.485900	0.825100	0.536800
C261	C26	0.586000	0.874200	0.543300
C271	C27	0.559100	0.925100	0.591900
C281	C28	0.436400	0.927700	0.631700
C291	C29	0.341000	0.876600	0.619800
C301	C30	0.401800	0.977400	0.687400
C311	C31	0.807400	0.772500	0.754000
C321	C32	0.679700	0.807600	0.782200
C331	C33	0.565800	0.765600	0.779200
C341	C34	0.590400	0.689900	0.749200
C351	C35	0.721500	0.658200	0.724200
C361	C36	0.664000	0.890000	0.813000
C371	C37	0.023500	0.520400	0.143800
C381	C38	0.889600	0.566500	0.148300
C391	C39	0.861800	0.663600	0.145200
C401	C40	0.973300	0.708500	0.140400
C411	C41	0.106800	0.656200	0.137900
C421	C42	0.953900	0.813000	0.139000
C431	C43	0.886200	0.399000	0.042700
C441	C44	0.004700	0.331900	0.048900
C451	C45	0.995000	0.236400	0.073700
C461	C46	0.864100	0.214800	0.088800
C471	C47	0.749000	0.288800	0.079600
C481	C48	0.841800	0.113300	0.115200
C491	C49	0.562600	0.625100	0.291300
C501	C50	0.440900	0.689800	0.272000
C511	C51	0.315900	0.658200	0.292400
C521	C52	0.318200	0.565200	0.331400
C531	C53	0.442500	0.506000	0.348900
C541	C54	0.447700	0.789700	0.228300
C551	C55	0.981900	0.702000	0.422200
C561	C56	0.882600	0.746300	0.374100
C571	C57	0.750800	0.721600	0.388700
C581	C58	0.727500	0.651500	0.449300
C591	C59	0.830700	0.613000	0.493300
C601	C60	0.917700	0.816100	0.309500
C611	C61	0.514100	0.174900	0.463200
C621	C62	0.414000	0.125800	0.456700
C631	C63	0.440900	0.074900	0.408100
C641	C64	0.563600	0.072300	0.368300
C651	C65	0.659000	0.123400	0.380200
C661	C66	0.598200	0.022600	0.312600
C671	C67	0.192600	0.227500	0.246000
C681	C68	0.320300	0.192400	0.217800
C691	C69	0.434200	0.234400	0.220800
C701	C70	0.409600	0.310100	0.250800
C711	C71	0.278500	0.341800	0.275800
C721	C72	0.336000	0.110000	0.187000
Br11	Br1	0.497680	0.423100	0.864210
Br21	Br2	0.624270	0.616910	0.945080
Br31	Br3	0.037410	0.497130	0.662140
Br41	Br4	0.216260	0.675640	0.727960
Br51	Br5	0.672710	0.373250	0.491800
Br61	Br6	0.982710	0.815190	0.563450
Br71	Br7	0.502320	0.576900	0.135790
Br81	Br8	0.375730	0.383090	0.054920
Br91	Br9	0.962590	0.502870	0.337860
Br101	Br10	0.783740	0.324360	0.272040
Br111	Br11	0.327290	0.626750	0.508200
Br121	Br12	0.017290	0.184810	0.436550
N11	N1	0.865800	0.437100	0.861500
N21	N2	0.242600	0.618700	0.942400
N31	N3	0.434300	0.466300	0.672000
N41	N4	0.041500	0.362900	0.518800
N51	N5	0.365400	0.825800	0.573400
N61	N6	0.830500	0.699100	0.724900
N71	N7	0.134200	0.562900	0.138500
N81	N8	0.757400	0.381300	0.057600
N91	N9	0.565700	0.533700	0.328000
N101	N10	0.958500	0.637100	0.481200
N111	N11	0.634600	0.174200	0.426600
N121	N12	0.169500	0.300900	0.275100
O11	O1	0.944300	0.159200	0.848700
O21	O2	0.166100	0.137200	0.873800
O31	O3	0.274700	0.904000	0.892000
O41	O4	0.063700	0.950700	0.855400
O51	O5	0.660700	0.161000	0.798700
O61	O6	0.437500	0.183700	0.778100
O71	O7	0.959100	0.167100	0.701500
O81	O8	0.175200	0.143800	0.732800
O91	O9	0.467200	0.038800	0.691600
O101	O10	0.305200	0.952100	0.733300
O111	O11	0.771700	0.914300	0.821900
O121	O12	0.543700	0.930900	0.826800
O131	O13	0.055700	0.840800	0.151300
O141	O14	0.833900	0.862800	0.126200
O151	O15	0.725300	0.096000	0.108000
O161	O16	0.936300	0.049300	0.144600
O171	O17	0.339300	0.839000	0.201300
O181	O18	0.562500	0.816300	0.221900
O191	O19	0.040900	0.832900	0.298500
O201	O20	0.824800	0.856200	0.267200
O211	O21	0.532800	0.961200	0.308400
O221	O22	0.694800	0.047900	0.266700
O231	O23	0.228300	0.085700	0.178100
O241	O24	0.456300	0.069100	0.173200
