data_WEFDIW_clean_PM
_symmetry_space_group_name_H-M	'P1'
_cell_length_a	21.576500
_cell_length_b	21.576500
_cell_length_c	11.346900
_cell_angle_alpha	90.000000
_cell_angle_beta	90.000000
_cell_angle_gamma	90.000000
_symmetry_Int_Tables_number 1

loop_
_symmetry_equiv_pos_as_xyz
'x,y,z'

loop_
_atom_site_label
_atom_site_type_symbol
_atom_site_fract_x
_atom_site_fract_y
_atom_site_fract_z
Sm11	Sm1	0.427760	0.936180	0.030580
O11	O1	0.505220	0.007420	0.116470
N11	N1	0.437450	0.938050	0.271700
C11	C1	0.493280	0.055990	0.177700
O21	O2	0.265660	0.026630	0.538180
O31	O3	0.514520	0.107490	0.146360
C21	C2	0.451750	0.052240	0.283400
O41	O4	0.308530	0.110520	0.611880
C31	C3	0.439260	0.108110	0.340400
H11	H1	0.461700	0.144100	0.318000
C41	C4	0.395430	0.112610	0.428100
H21	H2	0.388900	0.150600	0.468600
O51	O5	0.331050	0.928060	0.148170
C51	C5	0.361120	0.060610	0.455900
O61	O6	0.287240	0.869380	0.289240
C61	C6	0.373630	0.003380	0.403100
H31	H3	0.349600	0.968100	0.423700
O71	O7	0.508730	0.874960	0.112680
C71	C7	0.420780	0.997750	0.321100
O81	O8	0.584630	0.859150	0.241200
C81	C8	0.309510	0.067930	0.542500
C91	C9	0.394610	0.887550	0.300900
H41	H4	0.388900	0.886000	0.387400
H51	H5	0.413000	0.847700	0.275600
C101	C10	0.332180	0.895520	0.242400
C111	C11	0.501620	0.920030	0.305500
H61	H6	0.500100	0.896100	0.379900
H71	H7	0.526200	0.958000	0.320200
C121	C12	0.533960	0.881400	0.211800
H81	H8	0.237800	0.039500	0.585600
Sm21	Sm2	0.927760	0.436180	0.530580
O91	O9	0.005220	0.507420	0.616470
N21	N2	0.937450	0.438050	0.771700
C131	C13	0.993280	0.555990	0.677700
O101	O10	0.765660	0.526630	0.038180
O111	O11	0.014520	0.607490	0.646360
C141	C14	0.951750	0.552240	0.783400
O121	O12	0.808530	0.610520	0.111880
C151	C15	0.939260	0.608110	0.840400
H91	H9	0.961700	0.644100	0.818000
C161	C16	0.895430	0.612610	0.928100
H101	H10	0.888900	0.650600	0.968600
O131	O13	0.831050	0.428060	0.648170
C171	C17	0.861120	0.560610	0.955900
O141	O14	0.787240	0.369380	0.789240
C181	C18	0.873630	0.503380	0.903100
H111	H11	0.849600	0.468100	0.923700
O151	O15	0.008730	0.374960	0.612680
C191	C19	0.920780	0.497750	0.821100
O161	O16	0.084630	0.359150	0.741200
C201	C20	0.809510	0.567930	0.042500
C211	C21	0.894610	0.387550	0.800900
H121	H12	0.888900	0.386000	0.887400
H131	H13	0.913000	0.347700	0.775600
C221	C22	0.832180	0.395520	0.742400
C231	C23	0.001620	0.420030	0.805500
H141	H14	0.000100	0.396100	0.879900
H151	H15	0.026200	0.458000	0.820200
C241	C24	0.033960	0.381400	0.711800
H161	H16	0.737800	0.539500	0.085600
Sm31	Sm3	0.072240	0.063820	0.530580
O171	O17	0.994780	0.992580	0.616470
N31	N3	0.062550	0.061950	0.771700
C251	C25	0.006720	0.944010	0.677700
O181	O18	0.234340	0.973370	0.038180
O191	O19	0.985480	0.892510	0.646360
C261	C26	0.048250	0.947760	0.783400
O201	O20	0.191470	0.889480	0.111880
C271	C27	0.060740	0.891890	0.840400
H171	H17	0.038300	0.855900	0.818000
C281	C28	0.104570	0.887390	0.928100
H181	H18	0.111100	0.849400	0.968600
O211	O21	0.168950	0.071940	0.648170
C291	C29	0.138880	0.939390	0.955900
O221	O22	0.212760	0.130620	0.789240
C301	C30	0.126370	0.996620	0.903100
H191	H19	0.150400	0.031900	0.923700
O231	O23	0.991270	0.125040	0.612680
C311	C31	0.079220	0.002250	0.821100
O241	O24	0.915370	0.140850	0.741200
C321	C32	0.190490	0.932070	0.042500
C331	C33	0.105390	0.112450	0.800900
H201	H20	0.111100	0.114000	0.887400
H211	H21	0.087000	0.152300	0.775600
C341	C34	0.167820	0.104480	0.742400
C351	C35	0.998380	0.079970	0.805500
H221	H22	0.999900	0.103900	0.879900
H231	H23	0.973800	0.042000	0.820200
C361	C36	0.966040	0.118600	0.711800
H241	H24	0.262200	0.960500	0.085600
Sm41	Sm4	0.572240	0.563820	0.030580
O251	O25	0.494780	0.492580	0.116470
N41	N4	0.562550	0.561950	0.271700
C371	C37	0.506720	0.444010	0.177700
O261	O26	0.734340	0.473370	0.538180
O271	O27	0.485480	0.392510	0.146360
C381	C38	0.548250	0.447760	0.283400
O281	O28	0.691470	0.389480	0.611880
C391	C39	0.560740	0.391890	0.340400
H251	H25	0.538300	0.355900	0.318000
C401	C40	0.604570	0.387390	0.428100
H261	H26	0.611100	0.349400	0.468600
O291	O29	0.668950	0.571940	0.148170
C411	C41	0.638880	0.439390	0.455900
O301	O30	0.712760	0.630620	0.289240
C421	C42	0.626370	0.496620	0.403100
H271	H27	0.650400	0.531900	0.423700
O311	O31	0.491270	0.625040	0.112680
C431	C43	0.579220	0.502250	0.321100
O321	O32	0.415370	0.640850	0.241200
C441	C44	0.690490	0.432070	0.542500
C451	C45	0.605390	0.612450	0.300900
H281	H28	0.611100	0.614000	0.387400
H291	H29	0.587000	0.652300	0.275600
C461	C46	0.667820	0.604480	0.242400
C471	C47	0.498380	0.579970	0.305500
H301	H30	0.499900	0.603900	0.379900
H311	H31	0.473800	0.542000	0.320200
C481	C48	0.466040	0.618600	0.211800
H321	H32	0.762200	0.460500	0.585600
Sm51	Sm5	0.813820	0.677760	0.280580
O331	O33	0.742580	0.755220	0.366470
N51	N5	0.811950	0.687450	0.521700
C491	C49	0.694010	0.743280	0.427700
O341	O34	0.723370	0.515660	0.788180
O351	O35	0.642510	0.764520	0.396360
C501	C50	0.697760	0.701750	0.533400
O361	O36	0.639480	0.558530	0.861880
C511	C51	0.641890	0.689260	0.590400
H331	H33	0.605900	0.711700	0.568000
C521	C52	0.637390	0.645430	0.678100
H341	H34	0.599400	0.638900	0.718600
O371	O37	0.821940	0.581050	0.398170
C531	C53	0.689390	0.611120	0.705900
O381	O38	0.880620	0.537240	0.539240
C541	C54	0.746620	0.623630	0.653100
H351	H35	0.781900	0.599600	0.673700
O391	O39	0.875040	0.758730	0.362680
C551	C55	0.752250	0.670780	0.571100
O401	O40	0.890850	0.834630	0.491200
C561	C56	0.682070	0.559510	0.792500
C571	C57	0.862450	0.644610	0.550900
H361	H36	0.864000	0.638900	0.637400
H371	H37	0.902300	0.663000	0.525600
C581	C58	0.854480	0.582180	0.492400
C591	C59	0.829970	0.751620	0.555500
H381	H38	0.853900	0.750100	0.629900
H391	H39	0.792000	0.776200	0.570200
C601	C60	0.868600	0.783960	0.461800
H401	H40	0.710500	0.487800	0.835600
Sm61	Sm6	0.313820	0.177760	0.780580
O411	O41	0.242580	0.255220	0.866470
N61	N6	0.311950	0.187450	0.021700
C611	C61	0.194010	0.243280	0.927700
O421	O42	0.223370	0.015660	0.288180
O431	O43	0.142510	0.264520	0.896360
C621	C62	0.197760	0.201750	0.033400
O441	O44	0.139480	0.058530	0.361880
C631	C63	0.141890	0.189260	0.090400
H411	H41	0.105900	0.211700	0.068000
C641	C64	0.137390	0.145430	0.178100
H421	H42	0.099400	0.138900	0.218600
O451	O45	0.321940	0.081050	0.898170
C651	C65	0.189390	0.111120	0.205900
O461	O46	0.380620	0.037240	0.039240
C661	C66	0.246620	0.123630	0.153100
H431	H43	0.281900	0.099600	0.173700
O471	O47	0.375040	0.258730	0.862680
C671	C67	0.252250	0.170780	0.071100
O481	O48	0.390850	0.334630	0.991200
C681	C68	0.182070	0.059510	0.292500
C691	C69	0.362450	0.144610	0.050900
H441	H44	0.364000	0.138900	0.137400
H451	H45	0.402300	0.163000	0.025600
C701	C70	0.354480	0.082180	0.992400
C711	C71	0.329970	0.251620	0.055500
H461	H46	0.353900	0.250100	0.129900
H471	H47	0.292000	0.276200	0.070200
C721	C72	0.368600	0.283960	0.961800
H481	H48	0.210500	0.987800	0.335600
Sm71	Sm7	0.686180	0.322240	0.780580
O491	O49	0.757420	0.244780	0.866470
N71	N7	0.688050	0.312550	0.021700
C731	C73	0.805990	0.256720	0.927700
O501	O50	0.776630	0.484340	0.288180
O511	O51	0.857490	0.235480	0.896360
C741	C74	0.802240	0.298250	0.033400
O521	O52	0.860520	0.441470	0.361880
C751	C75	0.858110	0.310740	0.090400
H491	H49	0.894100	0.288300	0.068000
C761	C76	0.862610	0.354570	0.178100
H501	H50	0.900600	0.361100	0.218600
O531	O53	0.678060	0.418950	0.898170
C771	C77	0.810610	0.388880	0.205900
O541	O54	0.619380	0.462760	0.039240
C781	C78	0.753380	0.376370	0.153100
H511	H51	0.718100	0.400400	0.173700
O551	O55	0.624960	0.241270	0.862680
C791	C79	0.747750	0.329220	0.071100
O561	O56	0.609150	0.165370	0.991200
C801	C80	0.817930	0.440490	0.292500
C811	C81	0.637550	0.355390	0.050900
H521	H52	0.636000	0.361100	0.137400
H531	H53	0.597700	0.337000	0.025600
C821	C82	0.645520	0.417820	0.992400
C831	C83	0.670030	0.248380	0.055500
H541	H54	0.646100	0.249900	0.129900
H551	H55	0.708000	0.223800	0.070200
C841	C84	0.631400	0.216040	0.961800
H561	H56	0.789500	0.512200	0.335600
Sm81	Sm8	0.186180	0.822240	0.280580
O571	O57	0.257420	0.744780	0.366470
N81	N8	0.188050	0.812550	0.521700
C851	C85	0.305990	0.756720	0.427700
O581	O58	0.276630	0.984340	0.788180
O591	O59	0.357490	0.735480	0.396360
C861	C86	0.302240	0.798250	0.533400
O601	O60	0.360520	0.941470	0.861880
C871	C87	0.358110	0.810740	0.590400
H571	H57	0.394100	0.788300	0.568000
C881	C88	0.362610	0.854570	0.678100
H581	H58	0.400600	0.861100	0.718600
O611	O61	0.178060	0.918950	0.398170
C891	C89	0.310610	0.888880	0.705900
O621	O62	0.119380	0.962760	0.539240
C901	C90	0.253380	0.876370	0.653100
H591	H59	0.218100	0.900400	0.673700
O631	O63	0.124960	0.741270	0.362680
C911	C91	0.247750	0.829220	0.571100
O641	O64	0.109150	0.665370	0.491200
C921	C92	0.317930	0.940490	0.792500
C931	C93	0.137550	0.855390	0.550900
H601	H60	0.136000	0.861100	0.637400
H611	H61	0.097700	0.837000	0.525600
C941	C94	0.145520	0.917820	0.492400
C951	C95	0.170030	0.748380	0.555500
H621	H62	0.146100	0.749900	0.629900
H631	H63	0.208000	0.723800	0.570200
C961	C96	0.131400	0.716040	0.461800
H641	H64	0.289500	0.012200	0.835600
Sm91	Sm9	0.572240	0.063820	0.969420
O651	O65	0.494780	0.992580	0.883530
N91	N9	0.562550	0.061950	0.728300
C971	C97	0.506720	0.944010	0.822300
O661	O66	0.734340	0.973370	0.461820
O671	O67	0.485480	0.892510	0.853640
C981	C98	0.548250	0.947760	0.716600
O681	O68	0.691470	0.889480	0.388120
C991	C99	0.560740	0.891890	0.659600
H651	H65	0.538300	0.855900	0.682000
C1001	C100	0.604570	0.887390	0.571900
H661	H66	0.611100	0.849400	0.531400
O691	O69	0.668950	0.071940	0.851830
C1011	C101	0.638880	0.939390	0.544100
O701	O70	0.712760	0.130620	0.710760
C1021	C102	0.626370	0.996620	0.596900
H671	H67	0.650400	0.031900	0.576300
O711	O71	0.491270	0.125040	0.887320
C1031	C103	0.579220	0.002250	0.678900
O721	O72	0.415370	0.140850	0.758800
C1041	C104	0.690490	0.932070	0.457500
C1051	C105	0.605390	0.112450	0.699100
H681	H68	0.611100	0.114000	0.612600
H691	H69	0.587000	0.152300	0.724400
C1061	C106	0.667820	0.104480	0.757600
C1071	C107	0.498380	0.079970	0.694500
H701	H70	0.499900	0.103900	0.620100
H711	H71	0.473800	0.042000	0.679800
C1081	C108	0.466040	0.118600	0.788200
H721	H72	0.762200	0.960500	0.414400
Sm101	Sm10	0.072240	0.563820	0.469420
O731	O73	0.994780	0.492580	0.383530
N101	N10	0.062550	0.561950	0.228300
C1091	C109	0.006720	0.444010	0.322300
O741	O74	0.234340	0.473370	0.961820
O751	O75	0.985480	0.392510	0.353640
C1101	C110	0.048250	0.447760	0.216600
O761	O76	0.191470	0.389480	0.888120
C1111	C111	0.060740	0.391890	0.159600
H731	H73	0.038300	0.355900	0.182000
C1121	C112	0.104570	0.387390	0.071900
H741	H74	0.111100	0.349400	0.031400
O771	O77	0.168950	0.571940	0.351830
C1131	C113	0.138880	0.439390	0.044100
O781	O78	0.212760	0.630620	0.210760
C1141	C114	0.126370	0.496620	0.096900
H751	H75	0.150400	0.531900	0.076300
O791	O79	0.991270	0.625040	0.387320
C1151	C115	0.079220	0.502250	0.178900
O801	O80	0.915370	0.640850	0.258800
C1161	C116	0.190490	0.432070	0.957500
C1171	C117	0.105390	0.612450	0.199100
H761	H76	0.111100	0.614000	0.112600
H771	H77	0.087000	0.652300	0.224400
C1181	C118	0.167820	0.604480	0.257600
C1191	C119	0.998380	0.579970	0.194500
H781	H78	0.999900	0.603900	0.120100
H791	H79	0.973800	0.542000	0.179800
C1201	C120	0.966040	0.618600	0.288200
H801	H80	0.262200	0.460500	0.914400
Sm111	Sm11	0.927760	0.936180	0.469420
O811	O81	0.005220	0.007420	0.383530
N111	N11	0.937450	0.938050	0.228300
C1211	C121	0.993280	0.055990	0.322300
O821	O82	0.765660	0.026630	0.961820
O831	O83	0.014520	0.107490	0.353640
C1221	C122	0.951750	0.052240	0.216600
O841	O84	0.808530	0.110520	0.888120
C1231	C123	0.939260	0.108110	0.159600
H811	H81	0.961700	0.144100	0.182000
C1241	C124	0.895430	0.112610	0.071900
H821	H82	0.888900	0.150600	0.031400
O851	O85	0.831050	0.928060	0.351830
C1251	C125	0.861120	0.060610	0.044100
O861	O86	0.787240	0.869380	0.210760
C1261	C126	0.873630	0.003380	0.096900
H831	H83	0.849600	0.968100	0.076300
O871	O87	0.008730	0.874960	0.387320
C1271	C127	0.920780	0.997750	0.178900
O881	O88	0.084630	0.859150	0.258800
C1281	C128	0.809510	0.067930	0.957500
C1291	C129	0.894610	0.887550	0.199100
H841	H84	0.888900	0.886000	0.112600
H851	H85	0.913000	0.847700	0.224400
C1301	C130	0.832180	0.895520	0.257600
C1311	C131	0.001620	0.920030	0.194500
H861	H86	0.000100	0.896100	0.120100
H871	H87	0.026200	0.958000	0.179800
C1321	C132	0.033960	0.881400	0.288200
H881	H88	0.737800	0.039500	0.914400
Sm121	Sm12	0.427760	0.436180	0.969420
O891	O89	0.505220	0.507420	0.883530
N121	N12	0.437450	0.438050	0.728300
C1331	C133	0.493280	0.555990	0.822300
O901	O90	0.265660	0.526630	0.461820
O911	O91	0.514520	0.607490	0.853640
C1341	C134	0.451750	0.552240	0.716600
O921	O92	0.308530	0.610520	0.388120
C1351	C135	0.439260	0.608110	0.659600
H891	H89	0.461700	0.644100	0.682000
C1361	C136	0.395430	0.612610	0.571900
H901	H90	0.388900	0.650600	0.531400
O931	O93	0.331050	0.428060	0.851830
C1371	C137	0.361120	0.560610	0.544100
O941	O94	0.287240	0.369380	0.710760
C1381	C138	0.373630	0.503380	0.596900
H911	H91	0.349600	0.468100	0.576300
O951	O95	0.508730	0.374960	0.887320
C1391	C139	0.420780	0.497750	0.678900
O961	O96	0.584630	0.359150	0.758800
C1401	C140	0.309510	0.567930	0.457500
C1411	C141	0.394610	0.387550	0.699100
H921	H92	0.388900	0.386000	0.612600
H931	H93	0.413000	0.347700	0.724400
C1421	C142	0.332180	0.395520	0.757600
C1431	C143	0.501620	0.420030	0.694500
H941	H94	0.500100	0.396100	0.620100
H951	H95	0.526200	0.458000	0.679800
C1441	C144	0.533960	0.381400	0.788200
H961	H96	0.237800	0.539500	0.414400
Sm131	Sm13	0.186180	0.322240	0.719420
O971	O97	0.257420	0.244780	0.633530
N131	N13	0.188050	0.312550	0.478300
C1451	C145	0.305990	0.256720	0.572300
O981	O98	0.276630	0.484340	0.211820
O991	O99	0.357490	0.235480	0.603640
C1461	C146	0.302240	0.298250	0.466600
O1001	O100	0.360520	0.441470	0.138120
C1471	C147	0.358110	0.310740	0.409600
H971	H97	0.394100	0.288300	0.432000
C1481	C148	0.362610	0.354570	0.321900
H981	H98	0.400600	0.361100	0.281400
O1011	O101	0.178060	0.418950	0.601830
C1491	C149	0.310610	0.388880	0.294100
O1021	O102	0.119380	0.462760	0.460760
C1501	C150	0.253380	0.376370	0.346900
H991	H99	0.218100	0.400400	0.326300
O1031	O103	0.124960	0.241270	0.637320
C1511	C151	0.247750	0.329220	0.428900
O1041	O104	0.109150	0.165370	0.508800
C1521	C152	0.317930	0.440490	0.207500
C1531	C153	0.137550	0.355390	0.449100
H1001	H100	0.136000	0.361100	0.362600
H1011	H101	0.097700	0.337000	0.474400
C1541	C154	0.145520	0.417820	0.507600
C1551	C155	0.170030	0.248380	0.444500
H1021	H102	0.146100	0.249900	0.370100
H1031	H103	0.208000	0.223800	0.429800
C1561	C156	0.131400	0.216040	0.538200
H1041	H104	0.289500	0.512200	0.164400
Sm141	Sm14	0.686180	0.822240	0.219420
O1051	O105	0.757420	0.744780	0.133530
N141	N14	0.688050	0.812550	0.978300
C1571	C157	0.805990	0.756720	0.072300
O1061	O106	0.776630	0.984340	0.711820
O1071	O107	0.857490	0.735480	0.103640
C1581	C158	0.802240	0.798250	0.966600
O1081	O108	0.860520	0.941470	0.638120
C1591	C159	0.858110	0.810740	0.909600
H1051	H105	0.894100	0.788300	0.932000
C1601	C160	0.862610	0.854570	0.821900
H1061	H106	0.900600	0.861100	0.781400
O1091	O109	0.678060	0.918950	0.101830
C1611	C161	0.810610	0.888880	0.794100
O1101	O110	0.619380	0.962760	0.960760
C1621	C162	0.753380	0.876370	0.846900
H1071	H107	0.718100	0.900400	0.826300
O1111	O111	0.624960	0.741270	0.137320
C1631	C163	0.747750	0.829220	0.928900
O1121	O112	0.609150	0.665370	0.008800
C1641	C164	0.817930	0.940490	0.707500
C1651	C165	0.637550	0.855390	0.949100
H1081	H108	0.636000	0.861100	0.862600
H1091	H109	0.597700	0.837000	0.974400
C1661	C166	0.645520	0.917820	0.007600
C1671	C167	0.670030	0.748380	0.944500
H1101	H110	0.646100	0.749900	0.870100
H1111	H111	0.708000	0.723800	0.929800
C1681	C168	0.631400	0.716040	0.038200
H1121	H112	0.789500	0.012200	0.664400
Sm151	Sm15	0.313820	0.677760	0.219420
O1131	O113	0.242580	0.755220	0.133530
N151	N15	0.311950	0.687450	0.978300
C1691	C169	0.194010	0.743280	0.072300
O1141	O114	0.223370	0.515660	0.711820
O1151	O115	0.142510	0.764520	0.103640
C1701	C170	0.197760	0.701750	0.966600
O1161	O116	0.139480	0.558530	0.638120
C1711	C171	0.141890	0.689260	0.909600
H1131	H113	0.105900	0.711700	0.932000
C1721	C172	0.137390	0.645430	0.821900
H1141	H114	0.099400	0.638900	0.781400
O1171	O117	0.321940	0.581050	0.101830
C1731	C173	0.189390	0.611120	0.794100
O1181	O118	0.380620	0.537240	0.960760
C1741	C174	0.246620	0.623630	0.846900
H1151	H115	0.281900	0.599600	0.826300
O1191	O119	0.375040	0.758730	0.137320
C1751	C175	0.252250	0.670780	0.928900
O1201	O120	0.390850	0.834630	0.008800
C1761	C176	0.182070	0.559510	0.707500
C1771	C177	0.362450	0.644610	0.949100
H1161	H116	0.364000	0.638900	0.862600
H1171	H117	0.402300	0.663000	0.974400
C1781	C178	0.354480	0.582180	0.007600
C1791	C179	0.329970	0.751620	0.944500
H1181	H118	0.353900	0.750100	0.870100
H1191	H119	0.292000	0.776200	0.929800
C1801	C180	0.368600	0.783960	0.038200
H1201	H120	0.210500	0.487800	0.664400
Sm161	Sm16	0.813820	0.177760	0.719420
O1211	O121	0.742580	0.255220	0.633530
N161	N16	0.811950	0.187450	0.478300
C1811	C181	0.694010	0.243280	0.572300
O1221	O122	0.723370	0.015660	0.211820
O1231	O123	0.642510	0.264520	0.603640
C1821	C182	0.697760	0.201750	0.466600
O1241	O124	0.639480	0.058530	0.138120
C1831	C183	0.641890	0.189260	0.409600
H1211	H121	0.605900	0.211700	0.432000
C1841	C184	0.637390	0.145430	0.321900
H1221	H122	0.599400	0.138900	0.281400
O1251	O125	0.821940	0.081050	0.601830
C1851	C185	0.689390	0.111120	0.294100
O1261	O126	0.880620	0.037240	0.460760
C1861	C186	0.746620	0.123630	0.346900
H1231	H123	0.781900	0.099600	0.326300
O1271	O127	0.875040	0.258730	0.637320
C1871	C187	0.752250	0.170780	0.428900
O1281	O128	0.890850	0.334630	0.508800
C1881	C188	0.682070	0.059510	0.207500
C1891	C189	0.862450	0.144610	0.449100
H1241	H124	0.864000	0.138900	0.362600
H1251	H125	0.902300	0.163000	0.474400
C1901	C190	0.854480	0.082180	0.507600
C1911	C191	0.829970	0.251620	0.444500
H1261	H126	0.853900	0.250100	0.370100
H1271	H127	0.792000	0.276200	0.429800
C1921	C192	0.868600	0.283960	0.538200
H1281	H128	0.710500	0.987800	0.164400
