data_WEFXEM_clean_PM
_symmetry_space_group_name_H-M	'P1'
_cell_length_a	7.453000
_cell_length_b	15.003200
_cell_length_c	17.612000
_cell_angle_alpha	90.000000
_cell_angle_beta	91.292200
_cell_angle_gamma	90.000000
_symmetry_Int_Tables_number 1

loop_
_symmetry_equiv_pos_as_xyz
'x,y,z'

loop_
_atom_site_label
_atom_site_type_symbol
_atom_site_fract_x
_atom_site_fract_y
_atom_site_fract_z
Ni11	Ni1	0.000000	0.000000	0.000000
Ni21	Ni2	0.000000	0.500000	0.500000
H11	H1	0.105630	0.866540	0.282090
H21	H2	0.477190	0.669930	0.299640
H31	H3	0.633830	0.732940	0.199250
H41	H4	0.411750	0.840210	0.023060
H51	H5	0.638920	0.922600	0.950290
H61	H6	0.775630	0.939460	0.171200
H71	H7	0.256160	0.590870	0.362330
H81	H8	0.919870	0.719620	0.498790
H91	H9	0.035380	0.828420	0.406090
H101	H10	0.894370	0.366540	0.217910
H111	H11	0.522810	0.169930	0.200360
H121	H12	0.366170	0.232940	0.300750
H131	H13	0.588250	0.340210	0.476940
H141	H14	0.361080	0.422600	0.549710
H151	H15	0.224370	0.439460	0.328800
H161	H16	0.743840	0.090870	0.137670
H171	H17	0.080130	0.219620	0.001210
H181	H18	0.964620	0.328420	0.093910
H191	H19	0.894370	0.133460	0.717910
H201	H20	0.522810	0.330070	0.700360
H211	H21	0.366170	0.267060	0.800750
H221	H22	0.588250	0.159790	0.976940
H231	H23	0.361080	0.077400	0.049710
H241	H24	0.224370	0.060540	0.828800
H251	H25	0.743840	0.409130	0.637670
H261	H26	0.080130	0.280380	0.501210
H271	H27	0.964620	0.171580	0.593910
H281	H28	0.105630	0.633460	0.782090
H291	H29	0.477190	0.830070	0.799640
H301	H30	0.633830	0.767060	0.699250
H311	H31	0.411750	0.659790	0.523060
H321	H32	0.638920	0.577400	0.450290
H331	H33	0.775630	0.560540	0.671200
H341	H34	0.256160	0.909130	0.862330
H351	H35	0.919870	0.780380	0.998790
H361	H36	0.035380	0.671580	0.906090
C11	C1	0.462770	0.837170	0.181040
C21	C2	0.305890	0.876850	0.205640
C31	C3	0.212850	0.839420	0.265280
C41	C4	0.276690	0.762310	0.300300
C51	C5	0.433570	0.722630	0.275700
C61	C6	0.526610	0.760060	0.216060
C71	C7	0.559830	0.876220	0.118830
C81	C8	0.513440	0.870490	0.043860
C91	C9	0.713240	0.924990	0.125210
C101	C10	0.179630	0.723260	0.362510
C111	C11	0.186740	0.636520	0.384790
C121	C12	0.065500	0.766960	0.408820
C131	C13	0.537230	0.337170	0.318960
C141	C14	0.694110	0.376850	0.294360
C151	C15	0.787150	0.339420	0.234720
C161	C16	0.723310	0.262310	0.199700
C171	C17	0.566430	0.222630	0.224300
C181	C18	0.473390	0.260060	0.283940
C191	C19	0.440170	0.376220	0.381170
C201	C20	0.486560	0.370490	0.456140
C211	C21	0.286760	0.424990	0.374790
C221	C22	0.820370	0.223260	0.137490
C231	C23	0.813260	0.136520	0.115210
C241	C24	0.934500	0.266960	0.091180
C251	C25	0.537230	0.162830	0.818960
C261	C26	0.694110	0.123150	0.794360
C271	C27	0.787150	0.160580	0.734720
C281	C28	0.723310	0.237690	0.699700
C291	C29	0.566430	0.277370	0.724300
C301	C30	0.473390	0.239940	0.783940
C311	C31	0.440170	0.123780	0.881170
C321	C32	0.486560	0.129510	0.956140
C331	C33	0.286760	0.075010	0.874790
C341	C34	0.820370	0.276740	0.637490
C351	C35	0.813260	0.363480	0.615210
C361	C36	0.934500	0.233040	0.591180
C371	C37	0.462770	0.662830	0.681040
C381	C38	0.305890	0.623150	0.705640
C391	C39	0.212850	0.660580	0.765280
C401	C40	0.276690	0.737690	0.800300
C411	C41	0.433570	0.777370	0.775700
C421	C42	0.526610	0.739940	0.716060
C431	C43	0.559830	0.623780	0.618830
C441	C44	0.513440	0.629510	0.543860
C451	C45	0.713240	0.575010	0.625210
C461	C46	0.179630	0.776740	0.862510
C471	C47	0.186740	0.863480	0.884790
C481	C48	0.065500	0.733040	0.908820
S11	S1	0.224610	0.975040	0.161040
S21	S2	0.775390	0.475040	0.338960
S31	S3	0.775390	0.024960	0.838960
S41	S4	0.224610	0.524960	0.661040
N11	N1	0.638170	0.915730	0.003910
N21	N2	0.761660	0.949410	0.054180
N31	N3	0.077000	0.626600	0.444870
N41	N4	0.002080	0.707210	0.459720
N51	N5	0.361830	0.415730	0.496090
N61	N6	0.238340	0.449410	0.445820
N71	N7	0.923000	0.126600	0.055130
N81	N8	0.997920	0.207210	0.040280
N91	N9	0.361830	0.084270	0.996090
N101	N10	0.238340	0.050590	0.945820
N111	N11	0.923000	0.373400	0.555130
N121	N12	0.997920	0.292790	0.540280
N131	N13	0.638170	0.584270	0.503910
N141	N14	0.761660	0.550590	0.554180
N151	N15	0.077000	0.873400	0.944870
N161	N16	0.002080	0.792790	0.959720
O11	O1	0.178710	0.955590	0.078160
O21	O2	0.057430	0.006870	0.200810
O31	O3	0.367940	0.047010	0.165960
O41	O4	0.821290	0.455590	0.421840
O51	O5	0.942570	0.506870	0.299190
O61	O6	0.632060	0.547010	0.334040
O71	O7	0.821290	0.044410	0.921840
O81	O8	0.942570	0.993130	0.799190
O91	O9	0.632060	0.952990	0.834040
O101	O10	0.178710	0.544410	0.578160
O111	O11	0.057430	0.493130	0.700810
O121	O12	0.367940	0.452990	0.665960
