data_WEHHEY_clean_PM
_symmetry_space_group_name_H-M	'P1'
_cell_length_a	12.160000
_cell_length_b	26.331000
_cell_length_c	26.468000
_cell_angle_alpha	90.000000
_cell_angle_beta	90.000000
_cell_angle_gamma	90.000000
_symmetry_Int_Tables_number 1

loop_
_symmetry_equiv_pos_as_xyz
'x,y,z'

loop_
_atom_site_label
_atom_site_type_symbol
_atom_site_fract_x
_atom_site_fract_y
_atom_site_fract_z
Zn11	Zn1	0.915070	0.459610	0.992940
Zn21	Zn2	0.084930	0.959610	0.007060
Zn31	Zn3	0.084930	0.040390	0.492940
Zn41	Zn4	0.915070	0.540390	0.507060
Zn51	Zn5	0.084930	0.540390	0.007060
Zn61	Zn6	0.915070	0.040390	0.992940
Zn71	Zn7	0.915070	0.959610	0.507060
Zn81	Zn8	0.084930	0.459610	0.492940
Zn91	Zn9	0.164480	0.750000	0.777120
Zn101	Zn10	0.989550	0.750000	0.696450
Zn111	Zn11	0.835520	0.250000	0.222880
Zn121	Zn12	0.010450	0.250000	0.303550
Zn131	Zn13	0.835520	0.750000	0.277120
Zn141	Zn14	0.010450	0.750000	0.196450
Zn151	Zn15	0.164480	0.250000	0.722880
Zn161	Zn16	0.989550	0.250000	0.803550
H11	H1	0.573000	0.529600	0.821600
H21	H2	0.664400	0.490300	0.805700
H31	H3	0.419800	0.448300	0.741700
H41	H4	0.519500	0.425900	0.772300
H51	H5	0.803600	0.631500	0.754400
H61	H6	0.004800	0.631900	0.873700
H71	H7	0.762200	0.527900	0.864500
H81	H8	0.341300	0.381600	0.783500
H91	H9	0.314200	0.490700	0.889200
H101	H10	0.102900	0.374200	0.888500
H111	H11	0.427000	0.029600	0.178400
H121	H12	0.335600	0.990300	0.194300
H131	H13	0.580200	0.948300	0.258300
H141	H14	0.480500	0.925900	0.227700
H151	H15	0.196400	0.131500	0.245600
H161	H16	0.995200	0.131900	0.126300
H171	H17	0.237800	0.027900	0.135500
H181	H18	0.658700	0.881600	0.216500
H191	H19	0.685800	0.990700	0.110800
H201	H20	0.897100	0.874200	0.111500
H211	H21	0.427000	0.970400	0.321600
H221	H22	0.335600	0.009700	0.305700
H231	H23	0.580200	0.051700	0.241700
H241	H24	0.480500	0.074100	0.272300
H251	H25	0.196400	0.868500	0.254400
H261	H26	0.995200	0.868100	0.373700
H271	H27	0.237800	0.972100	0.364500
H281	H28	0.658700	0.118400	0.283500
H291	H29	0.685800	0.009300	0.389200
H301	H30	0.897100	0.125800	0.388500
H311	H31	0.573000	0.470400	0.678400
H321	H32	0.664400	0.509700	0.694300
H331	H33	0.419800	0.551700	0.758300
H341	H34	0.519500	0.574100	0.727700
H351	H35	0.803600	0.368500	0.745600
H361	H36	0.004800	0.368100	0.626300
H371	H37	0.762200	0.472100	0.635500
H381	H38	0.341300	0.618400	0.716500
H391	H39	0.314200	0.509300	0.610800
H401	H40	0.102900	0.625800	0.611500
H411	H41	0.427000	0.470400	0.178400
H421	H42	0.335600	0.509700	0.194300
H431	H43	0.580200	0.551700	0.258300
H441	H44	0.480500	0.574100	0.227700
H451	H45	0.196400	0.368500	0.245600
H461	H46	0.995200	0.368100	0.126300
H471	H47	0.237800	0.472100	0.135500
H481	H48	0.658700	0.618400	0.216500
H491	H49	0.685800	0.509300	0.110800
H501	H50	0.897100	0.625800	0.111500
H511	H51	0.573000	0.970400	0.821600
H521	H52	0.664400	0.009700	0.805700
H531	H53	0.419800	0.051700	0.741700
H541	H54	0.519500	0.074100	0.772300
H551	H55	0.803600	0.868500	0.754400
H561	H56	0.004800	0.868100	0.873700
H571	H57	0.762200	0.972100	0.864500
H581	H58	0.341300	0.118400	0.783500
H591	H59	0.314200	0.009300	0.889200
H601	H60	0.102900	0.125800	0.888500
H611	H61	0.573000	0.029600	0.678400
H621	H62	0.664400	0.990300	0.694300
H631	H63	0.419800	0.948300	0.758300
H641	H64	0.519500	0.925900	0.727700
H651	H65	0.803600	0.131500	0.745600
H661	H66	0.004800	0.131900	0.626300
H671	H67	0.762200	0.027900	0.635500
H681	H68	0.341300	0.881600	0.716500
H691	H69	0.314200	0.990700	0.610800
H701	H70	0.102900	0.874200	0.611500
H711	H71	0.427000	0.529600	0.321600
H721	H72	0.335600	0.490300	0.305700
H731	H73	0.580200	0.448300	0.241700
H741	H74	0.480500	0.425900	0.272300
H751	H75	0.196400	0.631500	0.254400
H761	H76	0.995200	0.631900	0.373700
H771	H77	0.237800	0.527900	0.364500
H781	H78	0.658700	0.381600	0.283500
H791	H79	0.685800	0.490700	0.389200
H801	H80	0.897100	0.374200	0.388500
C11	C1	0.618600	0.518010	0.793760
C21	C2	0.474800	0.455920	0.767120
C31	C3	0.768800	0.576230	0.804990
C41	C4	0.825200	0.617660	0.785160
C51	C5	0.912000	0.637980	0.810730
C61	C6	0.945400	0.617860	0.856570
C71	C7	0.889700	0.576790	0.876640
C81	C8	0.799900	0.555410	0.850960
C91	C9	0.974900	0.680720	0.786220
C101	C10	0.928700	0.551980	0.924920
C111	C11	0.305200	0.395240	0.811290
C121	C12	0.339400	0.441170	0.831820
C131	C13	0.288200	0.460940	0.874620
C141	C14	0.216300	0.369830	0.832810
C151	C15	0.163100	0.390840	0.874500
C161	C16	0.198800	0.436260	0.895280
C171	C17	0.173000	0.322490	0.809710
C181	C18	0.135000	0.460160	0.938220
C191	C19	0.381400	0.018010	0.206240
C201	C20	0.525200	0.955920	0.232880
C211	C21	0.231200	0.076230	0.195010
C221	C22	0.174800	0.117660	0.214840
C231	C23	0.088000	0.137980	0.189270
C241	C24	0.054600	0.117860	0.143430
C251	C25	0.110300	0.076790	0.123360
C261	C26	0.200100	0.055410	0.149040
C271	C27	0.025100	0.180720	0.213780
C281	C28	0.071300	0.051980	0.075080
C291	C29	0.694800	0.895240	0.188710
C301	C30	0.660600	0.941170	0.168180
C311	C31	0.711800	0.960940	0.125380
C321	C32	0.783700	0.869830	0.167190
C331	C33	0.836900	0.890840	0.125500
C341	C34	0.801200	0.936260	0.104720
C351	C35	0.827000	0.822490	0.190290
C361	C36	0.865000	0.960160	0.061780
C371	C37	0.381400	0.981990	0.293760
C381	C38	0.525200	0.044080	0.267120
C391	C39	0.231200	0.923770	0.304990
C401	C40	0.174800	0.882340	0.285160
C411	C41	0.088000	0.862020	0.310730
C421	C42	0.054600	0.882140	0.356570
C431	C43	0.110300	0.923210	0.376640
C441	C44	0.200100	0.944590	0.350960
C451	C45	0.025100	0.819280	0.286220
C461	C46	0.071300	0.948020	0.424920
C471	C47	0.694800	0.104760	0.311290
C481	C48	0.660600	0.058830	0.331820
C491	C49	0.711800	0.039060	0.374620
C501	C50	0.783700	0.130170	0.332810
C511	C51	0.836900	0.109160	0.374500
C521	C52	0.801200	0.063740	0.395280
C531	C53	0.827000	0.177510	0.309710
C541	C54	0.865000	0.039840	0.438220
C551	C55	0.618600	0.481990	0.706240
C561	C56	0.474800	0.544080	0.732880
C571	C57	0.768800	0.423770	0.695010
C581	C58	0.825200	0.382340	0.714840
C591	C59	0.912000	0.362020	0.689270
C601	C60	0.945400	0.382140	0.643430
C611	C61	0.889700	0.423210	0.623360
C621	C62	0.799900	0.444590	0.649040
C631	C63	0.974900	0.319280	0.713780
C641	C64	0.928700	0.448020	0.575080
C651	C65	0.305200	0.604760	0.688710
C661	C66	0.339400	0.558830	0.668180
C671	C67	0.288200	0.539060	0.625380
C681	C68	0.216300	0.630170	0.667190
C691	C69	0.163100	0.609160	0.625500
C701	C70	0.198800	0.563740	0.604720
C711	C71	0.173000	0.677510	0.690290
C721	C72	0.135000	0.539840	0.561780
C731	C73	0.381400	0.481990	0.206240
C741	C74	0.525200	0.544080	0.232880
C751	C75	0.231200	0.423770	0.195010
C761	C76	0.174800	0.382340	0.214840
C771	C77	0.088000	0.362020	0.189270
C781	C78	0.054600	0.382140	0.143430
C791	C79	0.110300	0.423210	0.123360
C801	C80	0.200100	0.444590	0.149040
C811	C81	0.025100	0.319280	0.213780
C821	C82	0.071300	0.448020	0.075080
C831	C83	0.694800	0.604760	0.188710
C841	C84	0.660600	0.558830	0.168180
C851	C85	0.711800	0.539060	0.125380
C861	C86	0.783700	0.630170	0.167190
C871	C87	0.836900	0.609160	0.125500
C881	C88	0.801200	0.563740	0.104720
C891	C89	0.827000	0.677510	0.190290
C901	C90	0.865000	0.539840	0.061780
C911	C91	0.618600	0.981990	0.793760
C921	C92	0.474800	0.044080	0.767120
C931	C93	0.768800	0.923770	0.804990
C941	C94	0.825200	0.882340	0.785160
C951	C95	0.912000	0.862020	0.810730
C961	C96	0.945400	0.882140	0.856570
C971	C97	0.889700	0.923210	0.876640
C981	C98	0.799900	0.944590	0.850960
C991	C99	0.974900	0.819280	0.786220
C1001	C100	0.928700	0.948020	0.924920
C1011	C101	0.305200	0.104760	0.811290
C1021	C102	0.339400	0.058830	0.831820
C1031	C103	0.288200	0.039060	0.874620
C1041	C104	0.216300	0.130170	0.832810
C1051	C105	0.163100	0.109160	0.874500
C1061	C106	0.198800	0.063740	0.895280
C1071	C107	0.173000	0.177510	0.809710
C1081	C108	0.135000	0.039840	0.938220
C1091	C109	0.618600	0.018010	0.706240
C1101	C110	0.474800	0.955920	0.732880
C1111	C111	0.768800	0.076230	0.695010
C1121	C112	0.825200	0.117660	0.714840
C1131	C113	0.912000	0.137980	0.689270
C1141	C114	0.945400	0.117860	0.643430
C1151	C115	0.889700	0.076790	0.623360
C1161	C116	0.799900	0.055410	0.649040
C1171	C117	0.974900	0.180720	0.713780
C1181	C118	0.928700	0.051980	0.575080
C1191	C119	0.305200	0.895240	0.688710
C1201	C120	0.339400	0.941170	0.668180
C1211	C121	0.288200	0.960940	0.625380
C1221	C122	0.216300	0.869830	0.667190
C1231	C123	0.163100	0.890840	0.625500
C1241	C124	0.198800	0.936260	0.604720
C1251	C125	0.173000	0.822490	0.690290
C1261	C126	0.135000	0.960160	0.561780
C1271	C127	0.381400	0.518010	0.293760
C1281	C128	0.525200	0.455920	0.267120
C1291	C129	0.231200	0.576230	0.304990
C1301	C130	0.174800	0.617660	0.285160
C1311	C131	0.088000	0.637980	0.310730
C1321	C132	0.054600	0.617860	0.356570
C1331	C133	0.110300	0.576790	0.376640
C1341	C134	0.200100	0.555410	0.350960
C1351	C135	0.025100	0.680720	0.286220
C1361	C136	0.071300	0.551980	0.424920
C1371	C137	0.694800	0.395240	0.311290
C1381	C138	0.660600	0.441170	0.331820
C1391	C139	0.711800	0.460940	0.374620
C1401	C140	0.783700	0.369830	0.332810
C1411	C141	0.836900	0.390840	0.374500
C1421	C142	0.801200	0.436260	0.395280
C1431	C143	0.827000	0.322490	0.309710
C1441	C144	0.865000	0.460160	0.438220
C1451	C145	0.546300	0.500000	0.750000
C1461	C146	0.453700	0.000000	0.250000
C1471	C147	0.453700	0.500000	0.250000
C1481	C148	0.546300	0.000000	0.750000
O11	O1	0.685000	0.558300	0.775950
O21	O2	0.423200	0.470410	0.813140
O31	O3	0.935300	0.697600	0.745660
O41	O4	0.061500	0.695910	0.807440
O51	O5	0.007500	0.572290	0.946950
O61	O6	0.879700	0.511880	0.938110
O71	O7	0.174400	0.499510	0.957120
O81	O8	0.219000	0.305630	0.771270
O91	O9	0.046500	0.439500	0.949680
O101	O10	0.090000	0.303530	0.831490
O111	O11	0.315000	0.058300	0.224050
O121	O12	0.576800	0.970410	0.186860
O131	O13	0.064700	0.197600	0.254340
O141	O14	0.938500	0.195910	0.192560
O151	O15	0.992500	0.072290	0.053050
O161	O16	0.120300	0.011880	0.061890
O171	O17	0.825600	0.999510	0.042880
O181	O18	0.781000	0.805630	0.228730
O191	O19	0.953500	0.939500	0.050320
O201	O20	0.910000	0.803530	0.168510
O211	O21	0.315000	0.941700	0.275950
O221	O22	0.576800	0.029590	0.313140
O231	O23	0.064700	0.802400	0.245660
O241	O24	0.938500	0.804090	0.307440
O251	O25	0.992500	0.927710	0.446950
O261	O26	0.120300	0.988120	0.438110
O271	O27	0.825600	0.000490	0.457120
O281	O28	0.781000	0.194370	0.271270
O291	O29	0.953500	0.060500	0.449680
O301	O30	0.910000	0.196470	0.331490
O311	O31	0.685000	0.441700	0.724050
O321	O32	0.423200	0.529590	0.686860
O331	O33	0.935300	0.302400	0.754340
O341	O34	0.061500	0.304090	0.692560
O351	O35	0.007500	0.427710	0.553050
O361	O36	0.879700	0.488120	0.561890
O371	O37	0.174400	0.500490	0.542880
O381	O38	0.219000	0.694370	0.728730
O391	O39	0.046500	0.560500	0.550320
O401	O40	0.090000	0.696470	0.668510
O411	O41	0.315000	0.441700	0.224050
O421	O42	0.576800	0.529590	0.186860
O431	O43	0.064700	0.302400	0.254340
O441	O44	0.938500	0.304090	0.192560
O451	O45	0.992500	0.427710	0.053050
O461	O46	0.120300	0.488120	0.061890
O471	O47	0.825600	0.500490	0.042880
O481	O48	0.781000	0.694370	0.228730
O491	O49	0.953500	0.560500	0.050320
O501	O50	0.910000	0.696470	0.168510
O511	O51	0.685000	0.941700	0.775950
O521	O52	0.423200	0.029590	0.813140
O531	O53	0.935300	0.802400	0.745660
O541	O54	0.061500	0.804090	0.807440
O551	O55	0.007500	0.927710	0.946950
O561	O56	0.879700	0.988120	0.938110
O571	O57	0.174400	0.000490	0.957120
O581	O58	0.219000	0.194370	0.771270
O591	O59	0.046500	0.060500	0.949680
O601	O60	0.090000	0.196470	0.831490
O611	O61	0.685000	0.058300	0.724050
O621	O62	0.423200	0.970410	0.686860
O631	O63	0.935300	0.197600	0.754340
O641	O64	0.061500	0.195910	0.692560
O651	O65	0.007500	0.072290	0.553050
O661	O66	0.879700	0.011880	0.561890
O671	O67	0.174400	0.999510	0.542880
O681	O68	0.219000	0.805630	0.728730
O691	O69	0.046500	0.939500	0.550320
O701	O70	0.090000	0.803530	0.668510
O711	O71	0.315000	0.558300	0.275950
O721	O72	0.576800	0.470410	0.313140
O731	O73	0.064700	0.697600	0.245660
O741	O74	0.938500	0.695910	0.307440
O751	O75	0.992500	0.572290	0.446950
O761	O76	0.120300	0.511880	0.438110
O771	O77	0.825600	0.499510	0.457120
O781	O78	0.781000	0.305630	0.271270
O791	O79	0.953500	0.439500	0.449680
O801	O80	0.910000	0.303530	0.331490
