data_WEHJAW_clean_PM
_symmetry_space_group_name_H-M	'P1'
_cell_length_a	19.039600
_cell_length_b	19.039600
_cell_length_c	23.563000
_cell_angle_alpha	90.000000
_cell_angle_beta	90.000000
_cell_angle_gamma	90.000000
_symmetry_Int_Tables_number 1

loop_
_symmetry_equiv_pos_as_xyz
'x,y,z'

loop_
_atom_site_label
_atom_site_type_symbol
_atom_site_fract_x
_atom_site_fract_y
_atom_site_fract_z
Zn11	Zn1	0.527080	0.548860	0.296030
Zn21	Zn2	0.972920	0.951140	0.296030
Zn31	Zn3	0.951140	0.527080	0.296030
Zn41	Zn4	0.548860	0.972920	0.296030
Zn51	Zn5	0.472920	0.048860	0.203970
Zn61	Zn6	0.027080	0.451140	0.203970
Zn71	Zn7	0.048860	0.027080	0.203970
Zn81	Zn8	0.451140	0.472920	0.203970
Zn91	Zn9	0.472920	0.451140	0.703970
Zn101	Zn10	0.027080	0.048860	0.703970
Zn111	Zn11	0.048860	0.472920	0.703970
Zn121	Zn12	0.451140	0.027080	0.703970
Zn131	Zn13	0.527080	0.951140	0.796030
Zn141	Zn14	0.972920	0.548860	0.796030
Zn151	Zn15	0.951140	0.972920	0.796030
Zn161	Zn16	0.548860	0.527080	0.796030
H11	H1	0.337200	0.612300	0.387800
H21	H2	0.302000	0.655900	0.485500
H31	H3	0.311300	0.709300	0.435000
H41	H4	0.242800	0.488600	0.271700
H51	H5	0.127000	0.595200	0.384300
H61	H6	0.162800	0.887700	0.387800
H71	H7	0.198000	0.844100	0.485500
H81	H8	0.188700	0.790700	0.435000
H91	H9	0.257200	0.011400	0.271700
H101	H10	0.373000	0.904800	0.384300
H111	H11	0.887700	0.337200	0.387800
H121	H12	0.844100	0.302000	0.485500
H131	H13	0.790700	0.311300	0.435000
H141	H14	0.011400	0.242800	0.271700
H151	H15	0.904800	0.127000	0.384300
H161	H16	0.612300	0.162800	0.387800
H171	H17	0.655900	0.198000	0.485500
H181	H18	0.709300	0.188700	0.435000
H191	H19	0.488600	0.257200	0.271700
H201	H20	0.595200	0.373000	0.384300
H211	H21	0.662800	0.112300	0.112200
H221	H22	0.698000	0.155900	0.014500
H231	H23	0.688700	0.209300	0.065000
H241	H24	0.757200	0.988600	0.228300
H251	H25	0.873000	0.095200	0.115700
H261	H26	0.837200	0.387700	0.112200
H271	H27	0.802000	0.344100	0.014500
H281	H28	0.811300	0.290700	0.065000
H291	H29	0.742800	0.511400	0.228300
H301	H30	0.627000	0.404800	0.115700
H311	H31	0.112300	0.837200	0.112200
H321	H32	0.155900	0.802000	0.014500
H331	H33	0.209300	0.811300	0.065000
H341	H34	0.988600	0.742800	0.228300
H351	H35	0.095200	0.627000	0.115700
H361	H36	0.387700	0.662800	0.112200
H371	H37	0.344100	0.698000	0.014500
H381	H38	0.290700	0.688700	0.065000
H391	H39	0.511400	0.757200	0.228300
H401	H40	0.404800	0.873000	0.115700
H411	H41	0.662800	0.387700	0.612200
H421	H42	0.698000	0.344100	0.514500
H431	H43	0.688700	0.290700	0.565000
H441	H44	0.757200	0.511400	0.728300
H451	H45	0.873000	0.404800	0.615700
H461	H46	0.837200	0.112300	0.612200
H471	H47	0.802000	0.155900	0.514500
H481	H48	0.811300	0.209300	0.565000
H491	H49	0.742800	0.988600	0.728300
H501	H50	0.627000	0.095200	0.615700
H511	H51	0.112300	0.662800	0.612200
H521	H52	0.155900	0.698000	0.514500
H531	H53	0.209300	0.688700	0.565000
H541	H54	0.988600	0.757200	0.728300
H551	H55	0.095200	0.873000	0.615700
H561	H56	0.387700	0.837200	0.612200
H571	H57	0.344100	0.802000	0.514500
H581	H58	0.290700	0.811300	0.565000
H591	H59	0.511400	0.742800	0.728300
H601	H60	0.404800	0.627000	0.615700
H611	H61	0.337200	0.887700	0.887800
H621	H62	0.302000	0.844100	0.985500
H631	H63	0.311300	0.790700	0.935000
H641	H64	0.242800	0.011400	0.771700
H651	H65	0.127000	0.904800	0.884300
H661	H66	0.162800	0.612300	0.887800
H671	H67	0.198000	0.655900	0.985500
H681	H68	0.188700	0.709300	0.935000
H691	H69	0.257200	0.488600	0.771700
H701	H70	0.373000	0.595200	0.884300
H711	H71	0.887700	0.162800	0.887800
H721	H72	0.844100	0.198000	0.985500
H731	H73	0.790700	0.188700	0.935000
H741	H74	0.011400	0.257200	0.771700
H751	H75	0.904800	0.373000	0.884300
H761	H76	0.612300	0.337200	0.887800
H771	H77	0.655900	0.302000	0.985500
H781	H78	0.709300	0.311300	0.935000
H791	H79	0.488600	0.242800	0.771700
H801	H80	0.595200	0.127000	0.884300
C11	C1	0.231000	0.611400	0.392800
C21	C2	0.300600	0.546400	0.326370
C31	C3	0.296600	0.593400	0.371900
C41	C4	0.278190	0.690800	0.462490
C51	C5	0.239800	0.518900	0.302580
C61	C6	0.170700	0.582900	0.369560
C71	C7	0.174600	0.536400	0.324760
C81	C8	0.371800	0.530800	0.299060
C91	C9	0.107600	0.511600	0.297040
C101	C10	0.269000	0.888600	0.392800
C111	C11	0.199400	0.953600	0.326370
C121	C12	0.203400	0.906600	0.371900
C131	C13	0.221810	0.809200	0.462490
C141	C14	0.260200	0.981100	0.302580
C151	C15	0.329300	0.917100	0.369560
C161	C16	0.325400	0.963600	0.324760
C171	C17	0.128200	0.969200	0.299060
C181	C18	0.392400	0.988400	0.297040
C191	C19	0.888600	0.231000	0.392800
C201	C20	0.953600	0.300600	0.326370
C211	C21	0.906600	0.296600	0.371900
C221	C22	0.809200	0.278190	0.462490
C231	C23	0.981100	0.239800	0.302580
C241	C24	0.917100	0.170700	0.369560
C251	C25	0.963600	0.174600	0.324760
C261	C26	0.969200	0.371800	0.299060
C271	C27	0.988400	0.107600	0.297040
C281	C28	0.611400	0.269000	0.392800
C291	C29	0.546400	0.199400	0.326370
C301	C30	0.593400	0.203400	0.371900
C311	C31	0.690800	0.221810	0.462490
C321	C32	0.518900	0.260200	0.302580
C331	C33	0.582900	0.329300	0.369560
C341	C34	0.536400	0.325400	0.324760
C351	C35	0.530800	0.128200	0.299060
C361	C36	0.511600	0.392400	0.297040
C371	C37	0.769000	0.111400	0.107200
C381	C38	0.699400	0.046400	0.173630
C391	C39	0.703400	0.093400	0.128100
C401	C40	0.721810	0.190800	0.037510
C411	C41	0.760200	0.018900	0.197420
C421	C42	0.829300	0.082900	0.130440
C431	C43	0.825400	0.036400	0.175240
C441	C44	0.628200	0.030800	0.200940
C451	C45	0.892400	0.011600	0.202960
C461	C46	0.731000	0.388600	0.107200
C471	C47	0.800600	0.453600	0.173630
C481	C48	0.796600	0.406600	0.128100
C491	C49	0.778190	0.309200	0.037510
C501	C50	0.739800	0.481100	0.197420
C511	C51	0.670700	0.417100	0.130440
C521	C52	0.674600	0.463600	0.175240
C531	C53	0.871800	0.469200	0.200940
C541	C54	0.607600	0.488400	0.202960
C551	C55	0.111400	0.731000	0.107200
C561	C56	0.046400	0.800600	0.173630
C571	C57	0.093400	0.796600	0.128100
C581	C58	0.190800	0.778190	0.037510
C591	C59	0.018900	0.739800	0.197420
C601	C60	0.082900	0.670700	0.130440
C611	C61	0.036400	0.674600	0.175240
C621	C62	0.030800	0.871800	0.200940
C631	C63	0.011600	0.607600	0.202960
C641	C64	0.388600	0.769000	0.107200
C651	C65	0.453600	0.699400	0.173630
C661	C66	0.406600	0.703400	0.128100
C671	C67	0.309200	0.721810	0.037510
C681	C68	0.481100	0.760200	0.197420
C691	C69	0.417100	0.829300	0.130440
C701	C70	0.463600	0.825400	0.175240
C711	C71	0.469200	0.628200	0.200940
C721	C72	0.488400	0.892400	0.202960
C731	C73	0.769000	0.388600	0.607200
C741	C74	0.699400	0.453600	0.673630
C751	C75	0.703400	0.406600	0.628100
C761	C76	0.721810	0.309200	0.537510
C771	C77	0.760200	0.481100	0.697420
C781	C78	0.829300	0.417100	0.630440
C791	C79	0.825400	0.463600	0.675240
C801	C80	0.628200	0.469200	0.700940
C811	C81	0.892400	0.488400	0.702960
C821	C82	0.731000	0.111400	0.607200
C831	C83	0.800600	0.046400	0.673630
C841	C84	0.796600	0.093400	0.628100
C851	C85	0.778190	0.190800	0.537510
C861	C86	0.739800	0.018900	0.697420
C871	C87	0.670700	0.082900	0.630440
C881	C88	0.674600	0.036400	0.675240
C891	C89	0.871800	0.030800	0.700940
C901	C90	0.607600	0.011600	0.702960
C911	C91	0.111400	0.769000	0.607200
C921	C92	0.046400	0.699400	0.673630
C931	C93	0.093400	0.703400	0.628100
C941	C94	0.190800	0.721810	0.537510
C951	C95	0.018900	0.760200	0.697420
C961	C96	0.082900	0.829300	0.630440
C971	C97	0.036400	0.825400	0.675240
C981	C98	0.030800	0.628200	0.700940
C991	C99	0.011600	0.892400	0.702960
C1001	C100	0.388600	0.731000	0.607200
C1011	C101	0.453600	0.800600	0.673630
C1021	C102	0.406600	0.796600	0.628100
C1031	C103	0.309200	0.778190	0.537510
C1041	C104	0.481100	0.739800	0.697420
C1051	C105	0.417100	0.670700	0.630440
C1061	C106	0.463600	0.674600	0.675240
C1071	C107	0.469200	0.871800	0.700940
C1081	C108	0.488400	0.607600	0.702960
C1091	C109	0.231000	0.888600	0.892800
C1101	C110	0.300600	0.953600	0.826370
C1111	C111	0.296600	0.906600	0.871900
C1121	C112	0.278190	0.809200	0.962490
C1131	C113	0.239800	0.981100	0.802580
C1141	C114	0.170700	0.917100	0.869560
C1151	C115	0.174600	0.963600	0.824760
C1161	C116	0.371800	0.969200	0.799060
C1171	C117	0.107600	0.988400	0.797040
C1181	C118	0.269000	0.611400	0.892800
C1191	C119	0.199400	0.546400	0.826370
C1201	C120	0.203400	0.593400	0.871900
C1211	C121	0.221810	0.690800	0.962490
C1221	C122	0.260200	0.518900	0.802580
C1231	C123	0.329300	0.582900	0.869560
C1241	C124	0.325400	0.536400	0.824760
C1251	C125	0.128200	0.530800	0.799060
C1261	C126	0.392400	0.511600	0.797040
C1271	C127	0.888600	0.269000	0.892800
C1281	C128	0.953600	0.199400	0.826370
C1291	C129	0.906600	0.203400	0.871900
C1301	C130	0.809200	0.221810	0.962490
C1311	C131	0.981100	0.260200	0.802580
C1321	C132	0.917100	0.329300	0.869560
C1331	C133	0.963600	0.325400	0.824760
C1341	C134	0.969200	0.128200	0.799060
C1351	C135	0.988400	0.392400	0.797040
C1361	C136	0.611400	0.231000	0.892800
C1371	C137	0.546400	0.300600	0.826370
C1381	C138	0.593400	0.296600	0.871900
C1391	C139	0.690800	0.278190	0.962490
C1401	C140	0.518900	0.239800	0.802580
C1411	C141	0.582900	0.170700	0.869560
C1421	C142	0.536400	0.174600	0.824760
C1431	C143	0.530800	0.371800	0.799060
C1441	C144	0.511600	0.107600	0.797040
C1451	C145	0.250000	0.750000	0.500000
C1461	C146	0.750000	0.250000	0.500000
C1471	C147	0.750000	0.250000	0.000000
C1481	C148	0.250000	0.750000	0.000000
O11	O1	0.219930	0.660350	0.434500
O21	O2	0.423890	0.557430	0.321980
O31	O3	0.370410	0.490870	0.257160
O41	O4	0.051610	0.526680	0.321450
O51	O5	0.113960	0.477100	0.251530
O61	O6	0.280070	0.839650	0.434500
O71	O7	0.076110	0.942570	0.321980
O81	O8	0.129590	0.009130	0.257160
O91	O9	0.448390	0.973320	0.321450
O101	O10	0.386040	0.022900	0.251530
O111	O11	0.839650	0.219930	0.434500
O121	O12	0.942570	0.423890	0.321980
O131	O13	0.009130	0.370410	0.257160
O141	O14	0.973320	0.051610	0.321450
O151	O15	0.022900	0.113960	0.251530
O161	O16	0.660350	0.280070	0.434500
O171	O17	0.557430	0.076110	0.321980
O181	O18	0.490870	0.129590	0.257160
O191	O19	0.526680	0.448390	0.321450
O201	O20	0.477100	0.386040	0.251530
O211	O21	0.780070	0.160350	0.065500
O221	O22	0.576110	0.057430	0.178020
O231	O23	0.629590	0.990870	0.242840
O241	O24	0.948390	0.026680	0.178550
O251	O25	0.886040	0.977100	0.248470
O261	O26	0.719930	0.339650	0.065500
O271	O27	0.923890	0.442570	0.178020
O281	O28	0.870410	0.509130	0.242840
O291	O29	0.551610	0.473320	0.178550
O301	O30	0.613960	0.522900	0.248470
O311	O31	0.160350	0.719930	0.065500
O321	O32	0.057430	0.923890	0.178020
O331	O33	0.990870	0.870410	0.242840
O341	O34	0.026680	0.551610	0.178550
O351	O35	0.977100	0.613960	0.248470
O361	O36	0.339650	0.780070	0.065500
O371	O37	0.442570	0.576110	0.178020
O381	O38	0.509130	0.629590	0.242840
O391	O39	0.473320	0.948390	0.178550
O401	O40	0.522900	0.886040	0.248470
O411	O41	0.780070	0.339650	0.565500
O421	O42	0.576110	0.442570	0.678020
O431	O43	0.629590	0.509130	0.742840
O441	O44	0.948390	0.473320	0.678550
O451	O45	0.886040	0.522900	0.748470
O461	O46	0.719930	0.160350	0.565500
O471	O47	0.923890	0.057430	0.678020
O481	O48	0.870410	0.990870	0.742840
O491	O49	0.551610	0.026680	0.678550
O501	O50	0.613960	0.977100	0.748470
O511	O51	0.160350	0.780070	0.565500
O521	O52	0.057430	0.576110	0.678020
O531	O53	0.990870	0.629590	0.742840
O541	O54	0.026680	0.948390	0.678550
O551	O55	0.977100	0.886040	0.748470
O561	O56	0.339650	0.719930	0.565500
O571	O57	0.442570	0.923890	0.678020
O581	O58	0.509130	0.870410	0.742840
O591	O59	0.473320	0.551610	0.678550
O601	O60	0.522900	0.613960	0.748470
O611	O61	0.219930	0.839650	0.934500
O621	O62	0.423890	0.942570	0.821980
O631	O63	0.370410	0.009130	0.757160
O641	O64	0.051610	0.973320	0.821450
O651	O65	0.113960	0.022900	0.751530
O661	O66	0.280070	0.660350	0.934500
O671	O67	0.076110	0.557430	0.821980
O681	O68	0.129590	0.490870	0.757160
O691	O69	0.448390	0.526680	0.821450
O701	O70	0.386040	0.477100	0.751530
O711	O71	0.839650	0.280070	0.934500
O721	O72	0.942570	0.076110	0.821980
O731	O73	0.009130	0.129590	0.757160
O741	O74	0.973320	0.448390	0.821450
O751	O75	0.022900	0.386040	0.751530
O761	O76	0.660350	0.219930	0.934500
O771	O77	0.557430	0.423890	0.821980
O781	O78	0.490870	0.370410	0.757160
O791	O79	0.526680	0.051610	0.821450
O801	O80	0.477100	0.113960	0.751530
