data_WEHJEA_clean_PM
_symmetry_space_group_name_H-M	'P1'
_cell_length_a	21.553000
_cell_length_b	21.553000
_cell_length_c	40.781000
_cell_angle_alpha	90.000000
_cell_angle_beta	90.000000
_cell_angle_gamma	90.000000
_symmetry_Int_Tables_number 1

loop_
_symmetry_equiv_pos_as_xyz
'x,y,z'

loop_
_atom_site_label
_atom_site_type_symbol
_atom_site_fract_x
_atom_site_fract_y
_atom_site_fract_z
Zn11	Zn1	0.379990	0.084750	0.372860
Zn21	Zn2	0.450000	0.966290	0.415380
Zn31	Zn3	0.941070	0.936700	0.393780
Zn41	Zn4	0.008750	0.034510	0.339370
Zn51	Zn5	0.620010	0.915250	0.872860
Zn61	Zn6	0.550000	0.033710	0.915380
Zn71	Zn7	0.058930	0.063300	0.893780
Zn81	Zn8	0.991250	0.965490	0.839370
Zn91	Zn9	0.415250	0.879990	0.622860
Zn101	Zn10	0.533710	0.950000	0.665380
Zn111	Zn11	0.563300	0.441070	0.643780
Zn121	Zn12	0.465490	0.508750	0.589370
Zn131	Zn13	0.584750	0.120010	0.122860
Zn141	Zn14	0.466290	0.050000	0.165380
Zn151	Zn15	0.436700	0.558930	0.143780
Zn161	Zn16	0.534510	0.491250	0.089370
Zn171	Zn17	0.120010	0.584750	0.877140
Zn181	Zn18	0.050000	0.466290	0.834620
Zn191	Zn19	0.558930	0.436700	0.856220
Zn201	Zn20	0.491250	0.534510	0.910630
Zn211	Zn21	0.879990	0.415250	0.377140
Zn221	Zn22	0.950000	0.533710	0.334620
Zn231	Zn23	0.441070	0.563300	0.356220
Zn241	Zn24	0.508750	0.465490	0.410630
Zn251	Zn25	0.084750	0.379990	0.627140
Zn261	Zn26	0.966290	0.450000	0.584620
Zn271	Zn27	0.936700	0.941070	0.606220
Zn281	Zn28	0.034510	0.008750	0.660630
Zn291	Zn29	0.915250	0.620010	0.127140
Zn301	Zn30	0.033710	0.550000	0.084620
Zn311	Zn31	0.063300	0.058930	0.106220
Zn321	Zn32	0.965490	0.991250	0.160630
H11	H1	0.233400	0.779100	0.503800
H21	H2	0.209800	0.722100	0.524200
H31	H3	0.083800	0.714100	0.500600
H41	H4	0.127600	0.656400	0.504900
H51	H5	0.253100	0.710600	0.456700
H61	H6	0.199600	0.667500	0.443500
H71	H7	0.120900	0.803700	0.463200
H81	H8	0.134400	0.756100	0.434900
H91	H9	0.288900	0.877600	0.426400
H101	H10	0.193500	0.006400	0.377100
H111	H11	0.104600	0.864800	0.420700
H121	H12	0.260000	0.809100	0.555500
H131	H13	0.198300	0.920900	0.625300
H141	H14	0.078900	0.853500	0.558500
H151	H15	0.038500	0.596500	0.417300
H161	H16	0.954800	0.465500	0.470500
H171	H17	0.051100	0.600700	0.515400
H181	H18	0.299700	0.598500	0.532100
H191	H19	0.448600	0.539000	0.479900
H201	H20	0.304100	0.618100	0.433900
H211	H21	0.766600	0.220900	0.003800
H221	H22	0.790200	0.277900	0.024200
H231	H23	0.916200	0.285900	0.000600
H241	H24	0.872400	0.343600	0.004900
H251	H25	0.746900	0.289400	0.956700
H261	H26	0.800400	0.332500	0.943500
H271	H27	0.879100	0.196300	0.963200
H281	H28	0.865600	0.243900	0.934900
H291	H29	0.711100	0.122400	0.926400
H301	H30	0.806500	0.993600	0.877100
H311	H31	0.895400	0.135200	0.920700
H321	H32	0.740000	0.190900	0.055500
H331	H33	0.801700	0.079100	0.125300
H341	H34	0.921100	0.146500	0.058500
H351	H35	0.961500	0.403500	0.917300
H361	H36	0.045200	0.534500	0.970500
H371	H37	0.948900	0.399300	0.015400
H381	H38	0.700300	0.401500	0.032100
H391	H39	0.551400	0.461000	0.979900
H401	H40	0.695900	0.381900	0.933900
H411	H41	0.720900	0.733400	0.753800
H421	H42	0.777900	0.709800	0.774200
H431	H43	0.785900	0.583800	0.750600
H441	H44	0.843600	0.627600	0.754900
H451	H45	0.789400	0.753100	0.706700
H461	H46	0.832500	0.699600	0.693500
H471	H47	0.696300	0.620900	0.713200
H481	H48	0.743900	0.634400	0.684900
H491	H49	0.622400	0.788900	0.676400
H501	H50	0.493600	0.693500	0.627100
H511	H51	0.635200	0.604600	0.670700
H521	H52	0.690900	0.760000	0.805500
H531	H53	0.579100	0.698300	0.875300
H541	H54	0.646500	0.578900	0.808500
H551	H55	0.903500	0.538500	0.667300
H561	H56	0.034500	0.454800	0.720500
H571	H57	0.899300	0.551100	0.765400
H581	H58	0.901500	0.799700	0.782100
H591	H59	0.961000	0.948600	0.729900
H601	H60	0.881900	0.804100	0.683900
H611	H61	0.279100	0.266600	0.253800
H621	H62	0.222100	0.290200	0.274200
H631	H63	0.214100	0.416200	0.250600
H641	H64	0.156400	0.372400	0.254900
H651	H65	0.210600	0.246900	0.206700
H661	H66	0.167500	0.300400	0.193500
H671	H67	0.303700	0.379100	0.213200
H681	H68	0.256100	0.365600	0.184900
H691	H69	0.377600	0.211100	0.176400
H701	H70	0.506400	0.306500	0.127100
H711	H71	0.364800	0.395400	0.170700
H721	H72	0.309100	0.240000	0.305500
H731	H73	0.420900	0.301700	0.375300
H741	H74	0.353500	0.421100	0.308500
H751	H75	0.096500	0.461500	0.167300
H761	H76	0.965500	0.545200	0.220500
H771	H77	0.100700	0.448900	0.265400
H781	H78	0.098500	0.200300	0.282100
H791	H79	0.039000	0.051400	0.229900
H801	H80	0.118100	0.195900	0.183900
H811	H81	0.266600	0.279100	0.746200
H821	H82	0.290200	0.222100	0.725800
H831	H83	0.416200	0.214100	0.749400
H841	H84	0.372400	0.156400	0.745100
H851	H85	0.246900	0.210600	0.793300
H861	H86	0.300400	0.167500	0.806500
H871	H87	0.379100	0.303700	0.786800
H881	H88	0.365600	0.256100	0.815100
H891	H89	0.211100	0.377600	0.823600
H901	H90	0.306500	0.506400	0.872900
H911	H91	0.395400	0.364800	0.829300
H921	H92	0.240000	0.309100	0.694500
H931	H93	0.301700	0.420900	0.624700
H941	H94	0.421100	0.353500	0.691500
H951	H95	0.461500	0.096500	0.832700
H961	H96	0.545200	0.965500	0.779500
H971	H97	0.448900	0.100700	0.734600
H981	H98	0.200300	0.098500	0.717900
H991	H99	0.051400	0.039000	0.770100
H1001	H100	0.195900	0.118100	0.816100
H1011	H101	0.733400	0.720900	0.246200
H1021	H102	0.709800	0.777900	0.225800
H1031	H103	0.583800	0.785900	0.249400
H1041	H104	0.627600	0.843600	0.245100
H1051	H105	0.753100	0.789400	0.293300
H1061	H106	0.699600	0.832500	0.306500
H1071	H107	0.620900	0.696300	0.286800
H1081	H108	0.634400	0.743900	0.315100
H1091	H109	0.788900	0.622400	0.323600
H1101	H110	0.693500	0.493600	0.372900
H1111	H111	0.604600	0.635200	0.329300
H1121	H112	0.760000	0.690900	0.194500
H1131	H113	0.698300	0.579100	0.124700
H1141	H114	0.578900	0.646500	0.191500
H1151	H115	0.538500	0.903500	0.332700
H1161	H116	0.454800	0.034500	0.279500
H1171	H117	0.551100	0.899300	0.234600
H1181	H118	0.799700	0.901500	0.217900
H1191	H119	0.948600	0.961000	0.270100
H1201	H120	0.804100	0.881900	0.316100
H1211	H121	0.779100	0.233400	0.496200
H1221	H122	0.722100	0.209800	0.475800
H1231	H123	0.714100	0.083800	0.499400
H1241	H124	0.656400	0.127600	0.495100
H1251	H125	0.710600	0.253100	0.543300
H1261	H126	0.667500	0.199600	0.556500
H1271	H127	0.803700	0.120900	0.536800
H1281	H128	0.756100	0.134400	0.565100
H1291	H129	0.877600	0.288900	0.573600
H1301	H130	0.006400	0.193500	0.622900
H1311	H131	0.864800	0.104600	0.579300
H1321	H132	0.809100	0.260000	0.444500
H1331	H133	0.920900	0.198300	0.374700
H1341	H134	0.853500	0.078900	0.441500
H1351	H135	0.596500	0.038500	0.582700
H1361	H136	0.465500	0.954800	0.529500
H1371	H137	0.600700	0.051100	0.484600
H1381	H138	0.598500	0.299700	0.467900
H1391	H139	0.539000	0.448600	0.520100
H1401	H140	0.618100	0.304100	0.566100
H1411	H141	0.220900	0.766600	0.996200
H1421	H142	0.277900	0.790200	0.975800
H1431	H143	0.285900	0.916200	0.999400
H1441	H144	0.343600	0.872400	0.995100
H1451	H145	0.289400	0.746900	0.043300
H1461	H146	0.332500	0.800400	0.056500
H1471	H147	0.196300	0.879100	0.036800
H1481	H148	0.243900	0.865600	0.065100
H1491	H149	0.122400	0.711100	0.073600
H1501	H150	0.993600	0.806500	0.122900
H1511	H151	0.135200	0.895400	0.079300
H1521	H152	0.190900	0.740000	0.944500
H1531	H153	0.079100	0.801700	0.874700
H1541	H154	0.146500	0.921100	0.941500
H1551	H155	0.403500	0.961500	0.082700
H1561	H156	0.534500	0.045200	0.029500
H1571	H157	0.399300	0.948900	0.984600
H1581	H158	0.401500	0.700300	0.967900
H1591	H159	0.461000	0.551400	0.020100
H1601	H160	0.381900	0.695900	0.066100
C11	C1	0.169600	0.727500	0.479210
C21	C2	0.197000	0.755000	0.509470
C31	C3	0.114100	0.688100	0.489630
C41	C4	0.216900	0.686600	0.462950
C51	C5	0.151900	0.776000	0.454100
C61	C6	0.196400	0.862200	0.427840
C71	C7	0.250700	0.893400	0.419850
C81	C8	0.248100	0.948400	0.402030
C91	C9	0.313800	0.981700	0.397220
C101	C10	0.194100	0.970500	0.389790
C111	C11	0.139700	0.938500	0.396640
C121	C12	0.141400	0.885300	0.415860
C131	C13	0.080000	0.960700	0.386400
C141	C14	0.168100	0.827000	0.552680
C151	C15	0.227700	0.830400	0.565570
C161	C16	0.238900	0.865800	0.593440
C171	C17	0.307800	0.871600	0.608700
C181	C18	0.191000	0.896100	0.607030
C191	C19	0.130800	0.891900	0.594930
C201	C20	0.118800	0.856700	0.567080
C211	C21	0.076300	0.924800	0.609870
C221	C22	0.046800	0.609500	0.466240
C231	C23	0.026800	0.580700	0.437630
C241	C24	0.989400	0.528300	0.439360
C251	C25	0.968100	0.502700	0.405950
C261	C26	0.977500	0.502100	0.469320
C271	C27	0.999200	0.529600	0.497960
C281	C28	0.035100	0.583000	0.496350
C291	C29	0.986000	0.503200	0.531520
C301	C30	0.290500	0.612700	0.483300
C311	C31	0.319300	0.593000	0.511980
C321	C32	0.377300	0.565000	0.510590
C331	C33	0.403800	0.546700	0.543200
C341	C34	0.409000	0.556100	0.480410
C351	C35	0.379200	0.573900	0.451700
C361	C36	0.322100	0.603700	0.453220
C371	C37	0.407500	0.563500	0.418700
C381	C38	0.830400	0.272500	0.979210
C391	C39	0.803000	0.245000	0.009470
C401	C40	0.885900	0.311900	0.989630
C411	C41	0.783100	0.313400	0.962950
C421	C42	0.848100	0.224000	0.954100
C431	C43	0.803600	0.137800	0.927840
C441	C44	0.749300	0.106600	0.919850
C451	C45	0.751900	0.051600	0.902030
C461	C46	0.686200	0.018300	0.897220
C471	C47	0.805900	0.029500	0.889790
C481	C48	0.860300	0.061500	0.896640
C491	C49	0.858600	0.114700	0.915860
C501	C50	0.920000	0.039300	0.886400
C511	C51	0.831900	0.173000	0.052680
C521	C52	0.772300	0.169600	0.065570
C531	C53	0.761100	0.134200	0.093440
C541	C54	0.692200	0.128400	0.108700
C551	C55	0.809000	0.103900	0.107030
C561	C56	0.869200	0.108100	0.094930
C571	C57	0.881200	0.143300	0.067080
C581	C58	0.923700	0.075200	0.109870
C591	C59	0.953200	0.390500	0.966240
C601	C60	0.973200	0.419300	0.937630
C611	C61	0.010600	0.471700	0.939360
C621	C62	0.031900	0.497300	0.905950
C631	C63	0.022500	0.497900	0.969320
C641	C64	0.000800	0.470400	0.997960
C651	C65	0.964900	0.417000	0.996350
C661	C66	0.014000	0.496800	0.031520
C671	C67	0.709500	0.387300	0.983300
C681	C68	0.680700	0.407000	0.011980
C691	C69	0.622700	0.435000	0.010590
C701	C70	0.596200	0.453300	0.043200
C711	C71	0.591000	0.443900	0.980410
C721	C72	0.620800	0.426100	0.951700
C731	C73	0.677900	0.396300	0.953220
C741	C74	0.592500	0.436500	0.918700
C751	C75	0.772500	0.669600	0.729210
C761	C76	0.745000	0.697000	0.759470
C771	C77	0.811900	0.614100	0.739630
C781	C78	0.813400	0.716900	0.712950
C791	C79	0.724000	0.651900	0.704100
C801	C80	0.637800	0.696400	0.677840
C811	C81	0.606600	0.750700	0.669850
C821	C82	0.551600	0.748100	0.652030
C831	C83	0.518300	0.813800	0.647220
C841	C84	0.529500	0.694100	0.639790
C851	C85	0.561500	0.639700	0.646640
C861	C86	0.614700	0.641400	0.665860
C871	C87	0.539300	0.580000	0.636400
C881	C88	0.673000	0.668100	0.802680
C891	C89	0.669600	0.727700	0.815570
C901	C90	0.634200	0.738900	0.843440
C911	C91	0.628400	0.807800	0.858700
C921	C92	0.603900	0.691000	0.857030
C931	C93	0.608100	0.630800	0.844930
C941	C94	0.643300	0.618800	0.817080
C951	C95	0.575200	0.576300	0.859870
C961	C96	0.890500	0.546800	0.716240
C971	C97	0.919300	0.526800	0.687630
C981	C98	0.971700	0.489400	0.689360
C991	C99	0.997300	0.468100	0.655950
C1001	C100	0.997900	0.477500	0.719320
C1011	C101	0.970400	0.499200	0.747960
C1021	C102	0.917000	0.535100	0.746350
C1031	C103	0.996800	0.486000	0.781520
C1041	C104	0.887300	0.790500	0.733300
C1051	C105	0.907000	0.819300	0.761980
C1061	C106	0.935000	0.877300	0.760590
C1071	C107	0.953300	0.903800	0.793200
C1081	C108	0.943900	0.909000	0.730410
C1091	C109	0.926100	0.879200	0.701700
C1101	C110	0.896300	0.822100	0.703220
C1111	C111	0.936500	0.907500	0.668700
C1121	C112	0.227500	0.330400	0.229210
C1131	C113	0.255000	0.303000	0.259470
C1141	C114	0.188100	0.385900	0.239630
C1151	C115	0.186600	0.283100	0.212950
C1161	C116	0.276000	0.348100	0.204100
C1171	C117	0.362200	0.303600	0.177840
C1181	C118	0.393400	0.249300	0.169850
C1191	C119	0.448400	0.251900	0.152030
C1201	C120	0.481700	0.186200	0.147220
C1211	C121	0.470500	0.305900	0.139790
C1221	C122	0.438500	0.360300	0.146640
C1231	C123	0.385300	0.358600	0.165860
C1241	C124	0.460700	0.420000	0.136400
C1251	C125	0.327000	0.331900	0.302680
C1261	C126	0.330400	0.272300	0.315570
C1271	C127	0.365800	0.261100	0.343440
C1281	C128	0.371600	0.192200	0.358700
C1291	C129	0.396100	0.309000	0.357030
C1301	C130	0.391900	0.369200	0.344930
C1311	C131	0.356700	0.381200	0.317080
C1321	C132	0.424800	0.423700	0.359870
C1331	C133	0.109500	0.453200	0.216240
C1341	C134	0.080700	0.473200	0.187630
C1351	C135	0.028300	0.510600	0.189360
C1361	C136	0.002700	0.531900	0.155950
C1371	C137	0.002100	0.522500	0.219320
C1381	C138	0.029600	0.500800	0.247960
C1391	C139	0.083000	0.464900	0.246350
C1401	C140	0.003200	0.514000	0.281520
C1411	C141	0.112700	0.209500	0.233300
C1421	C142	0.093000	0.180700	0.261980
C1431	C143	0.065000	0.122700	0.260590
C1441	C144	0.046700	0.096200	0.293200
C1451	C145	0.056100	0.091000	0.230410
C1461	C146	0.073900	0.120800	0.201700
C1471	C147	0.103700	0.177900	0.203220
C1481	C148	0.063500	0.092500	0.168700
C1491	C149	0.330400	0.227500	0.770790
C1501	C150	0.303000	0.255000	0.740530
C1511	C151	0.385900	0.188100	0.760370
C1521	C152	0.283100	0.186600	0.787050
C1531	C153	0.348100	0.276000	0.795900
C1541	C154	0.303600	0.362200	0.822160
C1551	C155	0.249300	0.393400	0.830150
C1561	C156	0.251900	0.448400	0.847970
C1571	C157	0.186200	0.481700	0.852780
C1581	C158	0.305900	0.470500	0.860210
C1591	C159	0.360300	0.438500	0.853360
C1601	C160	0.358600	0.385300	0.834140
C1611	C161	0.420000	0.460700	0.863600
C1621	C162	0.331900	0.327000	0.697320
C1631	C163	0.272300	0.330400	0.684430
C1641	C164	0.261100	0.365800	0.656560
C1651	C165	0.192200	0.371600	0.641300
C1661	C166	0.309000	0.396100	0.642970
C1671	C167	0.369200	0.391900	0.655070
C1681	C168	0.381200	0.356700	0.682920
C1691	C169	0.423700	0.424800	0.640130
C1701	C170	0.453200	0.109500	0.783760
C1711	C171	0.473200	0.080700	0.812370
C1721	C172	0.510600	0.028300	0.810640
C1731	C173	0.531900	0.002700	0.844050
C1741	C174	0.522500	0.002100	0.780680
C1751	C175	0.500800	0.029600	0.752040
C1761	C176	0.464900	0.083000	0.753650
C1771	C177	0.514000	0.003200	0.718480
C1781	C178	0.209500	0.112700	0.766700
C1791	C179	0.180700	0.093000	0.738020
C1801	C180	0.122700	0.065000	0.739410
C1811	C181	0.096200	0.046700	0.706800
C1821	C182	0.091000	0.056100	0.769590
C1831	C183	0.120800	0.073900	0.798300
C1841	C184	0.177900	0.103700	0.796780
C1851	C185	0.092500	0.063500	0.831300
C1861	C186	0.669600	0.772500	0.270790
C1871	C187	0.697000	0.745000	0.240530
C1881	C188	0.614100	0.811900	0.260370
C1891	C189	0.716900	0.813400	0.287050
C1901	C190	0.651900	0.724000	0.295900
C1911	C191	0.696400	0.637800	0.322160
C1921	C192	0.750700	0.606600	0.330150
C1931	C193	0.748100	0.551600	0.347970
C1941	C194	0.813800	0.518300	0.352780
C1951	C195	0.694100	0.529500	0.360210
C1961	C196	0.639700	0.561500	0.353360
C1971	C197	0.641400	0.614700	0.334140
C1981	C198	0.580000	0.539300	0.363600
C1991	C199	0.668100	0.673000	0.197320
C2001	C200	0.727700	0.669600	0.184430
C2011	C201	0.738900	0.634200	0.156560
C2021	C202	0.807800	0.628400	0.141300
C2031	C203	0.691000	0.603900	0.142970
C2041	C204	0.630800	0.608100	0.155070
C2051	C205	0.618800	0.643300	0.182920
C2061	C206	0.576300	0.575200	0.140130
C2071	C207	0.546800	0.890500	0.283760
C2081	C208	0.526800	0.919300	0.312370
C2091	C209	0.489400	0.971700	0.310640
C2101	C210	0.468100	0.997300	0.344050
C2111	C211	0.477500	0.997900	0.280680
C2121	C212	0.499200	0.970400	0.252040
C2131	C213	0.535100	0.917000	0.253650
C2141	C214	0.486000	0.996800	0.218480
C2151	C215	0.790500	0.887300	0.266700
C2161	C216	0.819300	0.907000	0.238020
C2171	C217	0.877300	0.935000	0.239410
C2181	C218	0.903800	0.953300	0.206800
C2191	C219	0.909000	0.943900	0.269590
C2201	C220	0.879200	0.926100	0.298300
C2211	C221	0.822100	0.896300	0.296780
C2221	C222	0.907500	0.936500	0.331300
C2231	C223	0.727500	0.169600	0.520790
C2241	C224	0.755000	0.197000	0.490530
C2251	C225	0.688100	0.114100	0.510370
C2261	C226	0.686600	0.216900	0.537050
C2271	C227	0.776000	0.151900	0.545900
C2281	C228	0.862200	0.196400	0.572160
C2291	C229	0.893400	0.250700	0.580150
C2301	C230	0.948400	0.248100	0.597970
C2311	C231	0.981700	0.313800	0.602780
C2321	C232	0.970500	0.194100	0.610210
C2331	C233	0.938500	0.139700	0.603360
C2341	C234	0.885300	0.141400	0.584140
C2351	C235	0.960700	0.080000	0.613600
C2361	C236	0.827000	0.168100	0.447320
C2371	C237	0.830400	0.227700	0.434430
C2381	C238	0.865800	0.238900	0.406560
C2391	C239	0.871600	0.307800	0.391300
C2401	C240	0.896100	0.191000	0.392970
C2411	C241	0.891900	0.130800	0.405070
C2421	C242	0.856700	0.118800	0.432920
C2431	C243	0.924800	0.076300	0.390130
C2441	C244	0.609500	0.046800	0.533760
C2451	C245	0.580700	0.026800	0.562370
C2461	C246	0.528300	0.989400	0.560640
C2471	C247	0.502700	0.968100	0.594050
C2481	C248	0.502100	0.977500	0.530680
C2491	C249	0.529600	0.999200	0.502040
C2501	C250	0.583000	0.035100	0.503650
C2511	C251	0.503200	0.986000	0.468480
C2521	C252	0.612700	0.290500	0.516700
C2531	C253	0.593000	0.319300	0.488020
C2541	C254	0.565000	0.377300	0.489410
C2551	C255	0.546700	0.403800	0.456800
C2561	C256	0.556100	0.409000	0.519590
C2571	C257	0.573900	0.379200	0.548300
C2581	C258	0.603700	0.322100	0.546780
C2591	C259	0.563500	0.407500	0.581300
C2601	C260	0.272500	0.830400	0.020790
C2611	C261	0.245000	0.803000	0.990530
C2621	C262	0.311900	0.885900	0.010370
C2631	C263	0.313400	0.783100	0.037050
C2641	C264	0.224000	0.848100	0.045900
C2651	C265	0.137800	0.803600	0.072160
C2661	C266	0.106600	0.749300	0.080150
C2671	C267	0.051600	0.751900	0.097970
C2681	C268	0.018300	0.686200	0.102780
C2691	C269	0.029500	0.805900	0.110210
C2701	C270	0.061500	0.860300	0.103360
C2711	C271	0.114700	0.858600	0.084140
C2721	C272	0.039300	0.920000	0.113600
C2731	C273	0.173000	0.831900	0.947320
C2741	C274	0.169600	0.772300	0.934430
C2751	C275	0.134200	0.761100	0.906560
C2761	C276	0.128400	0.692200	0.891300
C2771	C277	0.103900	0.809000	0.892970
C2781	C278	0.108100	0.869200	0.905070
C2791	C279	0.143300	0.881200	0.932920
C2801	C280	0.075200	0.923700	0.890130
C2811	C281	0.390500	0.953200	0.033760
C2821	C282	0.419300	0.973200	0.062370
C2831	C283	0.471700	0.010600	0.060640
C2841	C284	0.497300	0.031900	0.094050
C2851	C285	0.497900	0.022500	0.030680
C2861	C286	0.470400	0.000800	0.002040
C2871	C287	0.417000	0.964900	0.003650
C2881	C288	0.496800	0.014000	0.968480
C2891	C289	0.387300	0.709500	0.016700
C2901	C290	0.407000	0.680700	0.988020
C2911	C291	0.435000	0.622700	0.989410
C2921	C292	0.453300	0.596200	0.956800
C2931	C293	0.443900	0.591000	0.019590
C2941	C294	0.426100	0.620800	0.048300
C2951	C295	0.396300	0.677900	0.046780
C2961	C296	0.436500	0.592500	0.081300
O11	O1	0.362300	0.958100	0.408010
O21	O2	0.307300	0.036600	0.382680
O31	O3	0.995800	0.530200	0.556680
O41	O4	0.969200	0.447300	0.532260
O51	O5	0.078200	0.005200	0.365090
O61	O6	0.030800	0.937800	0.396310
O71	O7	0.379500	0.554400	0.568020
O81	O8	0.459100	0.522500	0.540770
O91	O9	0.927400	0.458300	0.409500
O101	O10	0.982000	0.527600	0.380190
O111	O11	0.086900	0.954600	0.636160
O121	O12	0.025200	0.919500	0.595920
O131	O13	0.383000	0.579600	0.392430
O141	O14	0.458700	0.543200	0.418420
O151	O15	0.344500	0.843600	0.595410
O161	O16	0.316300	0.900100	0.631020
O171	O17	0.204500	0.809800	0.445260
O181	O18	0.153000	0.793800	0.525450
O191	O19	0.233600	0.640000	0.486530
O201	O20	0.086400	0.659600	0.461680
O211	O21	0.637700	0.041900	0.908010
O221	O22	0.692700	0.963400	0.882680
O231	O23	0.004200	0.469800	0.056680
O241	O24	0.030800	0.552700	0.032260
O251	O25	0.921800	0.994800	0.865090
O261	O26	0.969200	0.062200	0.896310
O271	O27	0.620500	0.445600	0.068020
O281	O28	0.540900	0.477500	0.040770
O291	O29	0.072600	0.541700	0.909500
O301	O30	0.018000	0.472400	0.880190
O311	O31	0.913100	0.045400	0.136160
O321	O32	0.974800	0.080500	0.095920
O331	O33	0.617000	0.420400	0.892430
O341	O34	0.541300	0.456800	0.918420
O351	O35	0.655500	0.156400	0.095410
O361	O36	0.683700	0.099900	0.131020
O371	O37	0.795500	0.190200	0.945260
O381	O38	0.847000	0.206200	0.025450
O391	O39	0.766400	0.360000	0.986530
O401	O40	0.913600	0.340400	0.961680
O411	O41	0.541900	0.862300	0.658010
O421	O42	0.463400	0.807300	0.632680
O431	O43	0.969800	0.495800	0.806680
O441	O44	0.052700	0.469200	0.782260
O451	O45	0.494800	0.578200	0.615090
O461	O46	0.562200	0.530800	0.646310
O471	O47	0.945600	0.879500	0.818020
O481	O48	0.977500	0.959100	0.790770
O491	O49	0.041700	0.427400	0.659500
O501	O50	0.972400	0.482000	0.630190
O511	O51	0.545400	0.586900	0.886160
O521	O52	0.580500	0.525200	0.845920
O531	O53	0.920400	0.883000	0.642430
O541	O54	0.956800	0.958700	0.668420
O551	O55	0.656400	0.844500	0.845410
O561	O56	0.599900	0.816300	0.881020
O571	O57	0.690200	0.704500	0.695260
O581	O58	0.706200	0.653000	0.775450
O591	O59	0.860000	0.733600	0.736530
O601	O60	0.840400	0.586400	0.711680
O611	O61	0.458100	0.137700	0.158010
O621	O62	0.536600	0.192700	0.132680
O631	O63	0.030200	0.504200	0.306680
O641	O64	0.947300	0.530800	0.282260
O651	O65	0.505200	0.421800	0.115090
O661	O66	0.437800	0.469200	0.146310
O671	O67	0.054400	0.120500	0.318020
O681	O68	0.022500	0.040900	0.290770
O691	O69	0.958300	0.572600	0.159500
O701	O70	0.027600	0.518000	0.130190
O711	O71	0.454600	0.413100	0.386160
O721	O72	0.419500	0.474800	0.345920
O731	O73	0.079600	0.117000	0.142430
O741	O74	0.043200	0.041300	0.168420
O751	O75	0.343600	0.155500	0.345410
O761	O76	0.400100	0.183700	0.381020
O771	O77	0.309800	0.295500	0.195260
O781	O78	0.293800	0.347000	0.275450
O791	O79	0.140000	0.266400	0.236530
O801	O80	0.159600	0.413600	0.211680
O811	O81	0.137700	0.458100	0.841990
O821	O82	0.192700	0.536600	0.867320
O831	O83	0.504200	0.030200	0.693320
O841	O84	0.530800	0.947300	0.717740
O851	O85	0.421800	0.505200	0.884910
O861	O86	0.469200	0.437800	0.853690
O871	O87	0.120500	0.054400	0.681980
O881	O88	0.040900	0.022500	0.709230
O891	O89	0.572600	0.958300	0.840500
O901	O90	0.518000	0.027600	0.869810
O911	O91	0.413100	0.454600	0.613840
O921	O92	0.474800	0.419500	0.654080
O931	O93	0.117000	0.079600	0.857570
O941	O94	0.041300	0.043200	0.831580
O951	O95	0.155500	0.343600	0.654590
O961	O96	0.183700	0.400100	0.618980
O971	O97	0.295500	0.309800	0.804740
O981	O98	0.347000	0.293800	0.724550
O991	O99	0.266400	0.140000	0.763470
O1001	O100	0.413600	0.159600	0.788320
O1011	O101	0.862300	0.541900	0.341990
O1021	O102	0.807300	0.463400	0.367320
O1031	O103	0.495800	0.969800	0.193320
O1041	O104	0.469200	0.052700	0.217740
O1051	O105	0.578200	0.494800	0.384910
O1061	O106	0.530800	0.562200	0.353690
O1071	O107	0.879500	0.945600	0.181980
O1081	O108	0.959100	0.977500	0.209230
O1091	O109	0.427400	0.041700	0.340500
O1101	O110	0.482000	0.972400	0.369810
O1111	O111	0.586900	0.545400	0.113840
O1121	O112	0.525200	0.580500	0.154080
O1131	O113	0.883000	0.920400	0.357570
O1141	O114	0.958700	0.956800	0.331580
O1151	O115	0.844500	0.656400	0.154590
O1161	O116	0.816300	0.599900	0.118980
O1171	O117	0.704500	0.690200	0.304740
O1181	O118	0.653000	0.706200	0.224550
O1191	O119	0.733600	0.860000	0.263470
O1201	O120	0.586400	0.840400	0.288320
O1211	O121	0.958100	0.362300	0.591990
O1221	O122	0.036600	0.307300	0.617320
O1231	O123	0.530200	0.995800	0.443320
O1241	O124	0.447300	0.969200	0.467740
O1251	O125	0.005200	0.078200	0.634910
O1261	O126	0.937800	0.030800	0.603690
O1271	O127	0.554400	0.379500	0.431980
O1281	O128	0.522500	0.459100	0.459230
O1291	O129	0.458300	0.927400	0.590500
O1301	O130	0.527600	0.982000	0.619810
O1311	O131	0.954600	0.086900	0.363840
O1321	O132	0.919500	0.025200	0.404080
O1331	O133	0.579600	0.383000	0.607570
O1341	O134	0.543200	0.458700	0.581580
O1351	O135	0.843600	0.344500	0.404590
O1361	O136	0.900100	0.316300	0.368980
O1371	O137	0.809800	0.204500	0.554740
O1381	O138	0.793800	0.153000	0.474550
O1391	O139	0.640000	0.233600	0.513470
O1401	O140	0.659600	0.086400	0.538320
O1411	O141	0.041900	0.637700	0.091990
O1421	O142	0.963400	0.692700	0.117320
O1431	O143	0.469800	0.004200	0.943320
O1441	O144	0.552700	0.030800	0.967740
O1451	O145	0.994800	0.921800	0.134910
O1461	O146	0.062200	0.969200	0.103690
O1471	O147	0.445600	0.620500	0.931980
O1481	O148	0.477500	0.540900	0.959230
O1491	O149	0.541700	0.072600	0.090500
O1501	O150	0.472400	0.018000	0.119810
O1511	O151	0.045400	0.913100	0.863840
O1521	O152	0.080500	0.974800	0.904080
O1531	O153	0.420400	0.617000	0.107570
O1541	O154	0.456800	0.541300	0.081580
O1551	O155	0.156400	0.655500	0.904590
O1561	O156	0.099900	0.683700	0.868980
O1571	O157	0.190200	0.795500	0.054740
O1581	O158	0.206200	0.847000	0.974550
O1591	O159	0.360000	0.766400	0.013470
O1601	O160	0.340400	0.913600	0.038320
