data_WEHJOK_clean_PM
_symmetry_space_group_name_H-M	'P1'
_cell_length_a	21.883000
_cell_length_b	21.883000
_cell_length_c	40.184000
_cell_angle_alpha	90.000000
_cell_angle_beta	90.000000
_cell_angle_gamma	90.000000
_symmetry_Int_Tables_number 1

loop_
_symmetry_equiv_pos_as_xyz
'x,y,z'

loop_
_atom_site_label
_atom_site_type_symbol
_atom_site_fract_x
_atom_site_fract_y
_atom_site_fract_z
Zn11	Zn1	0.818150	0.989710	0.714230
Zn21	Zn2	0.262480	0.431030	0.964850
Zn31	Zn3	0.779670	0.343230	0.710250
Zn41	Zn4	0.193450	0.517650	0.025360
Zn51	Zn5	0.740440	0.913810	0.773890
Zn61	Zn6	0.190750	0.927630	0.989540
Zn71	Zn7	0.629810	0.466690	0.967050
Zn81	Zn8	0.200240	0.969730	0.744380
Zn91	Zn9	0.655600	0.395630	0.744460
Zn101	Zn10	0.749170	0.422990	0.011510
Zn111	Zn11	0.681850	0.010290	0.214230
Zn121	Zn12	0.237520	0.568970	0.464850
Zn131	Zn13	0.720330	0.656770	0.210250
Zn141	Zn14	0.306550	0.482350	0.525360
Zn151	Zn15	0.759560	0.086190	0.273890
Zn161	Zn16	0.309250	0.072370	0.489540
Zn171	Zn17	0.870190	0.533310	0.467050
Zn181	Zn18	0.299760	0.030270	0.244380
Zn191	Zn19	0.844400	0.604370	0.244460
Zn201	Zn20	0.750830	0.577010	0.511510
Zn211	Zn21	0.181850	0.489710	0.785770
Zn221	Zn22	0.737520	0.931030	0.535150
Zn231	Zn23	0.220330	0.843230	0.789750
Zn241	Zn24	0.806550	0.017650	0.474640
Zn251	Zn25	0.259560	0.413810	0.726110
Zn261	Zn26	0.809250	0.427630	0.510460
Zn271	Zn27	0.370190	0.966690	0.532950
Zn281	Zn28	0.799760	0.469730	0.755620
Zn291	Zn29	0.344400	0.895630	0.755540
Zn301	Zn30	0.250830	0.922990	0.488490
Zn311	Zn31	0.318150	0.510290	0.285770
Zn321	Zn32	0.762480	0.068970	0.035150
Zn331	Zn33	0.279670	0.156770	0.289750
Zn341	Zn34	0.693450	0.982350	0.974640
Zn351	Zn35	0.240440	0.586190	0.226110
Zn361	Zn36	0.690750	0.572370	0.010460
Zn371	Zn37	0.129810	0.033310	0.032950
Zn381	Zn38	0.700240	0.530270	0.255620
Zn391	Zn39	0.155600	0.104370	0.255540
Zn401	Zn40	0.249170	0.077010	0.988490
H11	H1	0.262600	0.408200	0.852800
H21	H2	0.371800	0.286000	0.896700
H31	H3	0.350700	0.289600	0.796400
H41	H4	0.464400	0.248700	0.876300
H51	H5	0.416500	0.198700	0.886800
H61	H6	0.560700	0.120900	0.880900
H71	H7	0.508800	0.137200	0.906600
H81	H8	0.544700	0.219300	0.832500
H91	H9	0.494200	0.190600	0.809500
H101	H10	0.611900	0.122200	0.930900
H111	H11	0.705100	0.235200	0.991700
H121	H12	0.593000	0.302400	0.921800
H131	H13	0.631500	0.057600	0.796800
H141	H14	0.735900	0.161600	0.736700
H151	H15	0.593700	0.234300	0.784600
H161	H16	0.389000	0.009900	0.832700
H171	H17	0.477800	0.073300	0.844600
H181	H18	0.421000	0.112700	0.833700
H191	H19	0.362300	0.050100	0.929500
H201	H20	0.269000	0.916700	0.887000
H211	H21	0.714500	0.503700	0.880400
H221	H22	0.800800	0.634600	0.928100
H231	H23	0.847200	0.597200	0.833400
H241	H24	0.852200	0.734200	0.910300
H251	H25	0.893700	0.680900	0.923800
H261	H26	0.895600	0.813100	0.873900
H271	H27	0.912600	0.761300	0.848400
H281	H28	0.889200	0.861600	0.821400
H291	H29	0.993000	0.948200	0.754600
H301	H30	0.072300	0.855100	0.830300
H311	H31	0.027300	0.725600	0.876200
H321	H32	0.978700	0.676000	0.865900
H331	H33	0.060400	0.623700	0.855400
H341	H34	0.173500	0.503300	0.895100
H351	H35	0.068800	0.607100	0.954300
H361	H36	0.838300	0.883600	0.958200
H371	H37	0.999900	0.806700	0.919000
H381	H38	0.980700	0.752900	0.942900
H391	H39	0.019000	0.855300	0.964400
H401	H40	0.945800	0.996600	0.012400
H411	H41	0.237400	0.591800	0.352800
H421	H42	0.128200	0.714000	0.396700
H431	H43	0.149300	0.710400	0.296400
H441	H44	0.035600	0.751300	0.376300
H451	H45	0.083500	0.801300	0.386800
H461	H46	0.939300	0.879100	0.380900
H471	H47	0.991200	0.862800	0.406600
H481	H48	0.955300	0.780700	0.332500
H491	H49	0.005800	0.809400	0.309500
H501	H50	0.888100	0.877800	0.430900
H511	H51	0.794900	0.764800	0.491700
H521	H52	0.907000	0.697600	0.421800
H531	H53	0.868500	0.942400	0.296800
H541	H54	0.764100	0.838400	0.236700
H551	H55	0.906300	0.765700	0.284600
H561	H56	0.111000	0.990100	0.332700
H571	H57	0.022200	0.926700	0.344600
H581	H58	0.079000	0.887300	0.333700
H591	H59	0.137700	0.949900	0.429500
H601	H60	0.231000	0.083300	0.387000
H611	H61	0.785500	0.496300	0.380400
H621	H62	0.699200	0.365400	0.428100
H631	H63	0.652800	0.402800	0.333400
H641	H64	0.647800	0.265800	0.410300
H651	H65	0.606300	0.319100	0.423800
H661	H66	0.604400	0.186900	0.373900
H671	H67	0.587400	0.238700	0.348400
H681	H68	0.610800	0.138400	0.321400
H691	H69	0.507000	0.051800	0.254600
H701	H70	0.427700	0.144900	0.330300
H711	H71	0.472700	0.274400	0.376200
H721	H72	0.521300	0.324000	0.365900
H731	H73	0.439600	0.376300	0.355400
H741	H74	0.326500	0.496700	0.395100
H751	H75	0.431200	0.392900	0.454300
H761	H76	0.661700	0.116400	0.458200
H771	H77	0.500100	0.193300	0.419000
H781	H78	0.519300	0.247100	0.442900
H791	H79	0.481000	0.144700	0.464400
H801	H80	0.554200	0.003400	0.512400
H811	H81	0.737400	0.908200	0.647200
H821	H82	0.628200	0.786000	0.603300
H831	H83	0.649300	0.789600	0.703600
H841	H84	0.535600	0.748700	0.623700
H851	H85	0.583500	0.698700	0.613200
H861	H86	0.439300	0.620900	0.619100
H871	H87	0.491200	0.637200	0.593400
H881	H88	0.455300	0.719300	0.667500
H891	H89	0.505800	0.690600	0.690500
H901	H90	0.388100	0.622200	0.569100
H911	H91	0.294900	0.735200	0.508300
H921	H92	0.407000	0.802400	0.578200
H931	H93	0.368500	0.557600	0.703200
H941	H94	0.264100	0.661600	0.763300
H951	H95	0.406300	0.734300	0.715400
H961	H96	0.611000	0.509900	0.667300
H971	H97	0.522200	0.573300	0.655400
H981	H98	0.579000	0.612700	0.666300
H991	H99	0.637700	0.550100	0.570500
H1001	H100	0.731000	0.416700	0.613000
H1011	H101	0.285500	0.003700	0.619600
H1021	H102	0.199200	0.134600	0.571900
H1031	H103	0.152800	0.097200	0.666600
H1041	H104	0.147800	0.234200	0.589700
H1051	H105	0.106300	0.180900	0.576200
H1061	H106	0.104400	0.313100	0.626100
H1071	H107	0.087400	0.261300	0.651600
H1081	H108	0.110800	0.361600	0.678600
H1091	H109	0.007000	0.448200	0.745400
H1101	H110	0.927700	0.355100	0.669700
H1111	H111	0.972700	0.225600	0.623800
H1121	H112	0.021300	0.176000	0.634100
H1131	H113	0.939600	0.123700	0.644600
H1141	H114	0.826500	0.003300	0.604900
H1151	H115	0.931200	0.107100	0.545700
H1161	H116	0.161700	0.383600	0.541800
H1171	H117	0.000100	0.306700	0.581000
H1181	H118	0.019300	0.252900	0.557100
H1191	H119	0.981000	0.355300	0.535600
H1201	H120	0.054200	0.496600	0.487600
H1211	H121	0.762600	0.091800	0.147200
H1221	H122	0.871800	0.214000	0.103300
H1231	H123	0.850700	0.210400	0.203600
H1241	H124	0.964400	0.251300	0.123700
H1251	H125	0.916500	0.301300	0.113200
H1261	H126	0.060700	0.379100	0.119100
H1271	H127	0.008800	0.362800	0.093400
H1281	H128	0.044700	0.280700	0.167500
H1291	H129	0.994200	0.309400	0.190500
H1301	H130	0.111900	0.377800	0.069100
H1311	H131	0.205100	0.264800	0.008300
H1321	H132	0.093000	0.197600	0.078200
H1331	H133	0.131500	0.442400	0.203200
H1341	H134	0.235900	0.338400	0.263300
H1351	H135	0.093700	0.265700	0.215400
H1361	H136	0.889000	0.490100	0.167300
H1371	H137	0.977800	0.426700	0.155400
H1381	H138	0.921000	0.387300	0.166300
H1391	H139	0.862300	0.449900	0.070500
H1401	H140	0.769000	0.583300	0.113000
H1411	H141	0.214500	0.996300	0.119600
H1421	H142	0.300800	0.865400	0.071900
H1431	H143	0.347200	0.902800	0.166600
H1441	H144	0.352200	0.765800	0.089700
H1451	H145	0.393700	0.819100	0.076200
H1461	H146	0.395600	0.686900	0.126100
H1471	H147	0.412600	0.738700	0.151600
H1481	H148	0.389200	0.638400	0.178600
H1491	H149	0.493000	0.551800	0.245400
H1501	H150	0.572300	0.644900	0.169700
H1511	H151	0.527300	0.774400	0.123800
H1521	H152	0.478700	0.824000	0.134100
H1531	H153	0.560400	0.876300	0.144600
H1541	H154	0.673500	0.996700	0.104900
H1551	H155	0.568800	0.892900	0.045700
H1561	H156	0.338300	0.616400	0.041800
H1571	H157	0.499900	0.693300	0.081000
H1581	H158	0.480700	0.747100	0.057100
H1591	H159	0.519000	0.644700	0.035600
H1601	H160	0.445800	0.503400	0.987600
C11	C1	0.877400	0.926900	0.769240
C21	C2	0.727200	0.045100	0.757170
C31	C3	0.276500	0.381600	0.789700
C41	C4	0.301900	0.352400	0.819670
C51	C5	0.289900	0.375800	0.851010
C61	C6	0.315700	0.353900	0.878880
C71	C7	0.355200	0.302400	0.877390
C81	C8	0.368700	0.276600	0.846050
C91	C9	0.341200	0.304800	0.817340
C101	C10	0.441800	0.213200	0.868630
C111	C11	0.486000	0.163400	0.858030
C121	C12	0.530700	0.151500	0.887100
C131	C13	0.521800	0.182300	0.827780
C141	C14	0.598400	0.211200	0.920490
C151	C15	0.622400	0.161800	0.937030
C161	C16	0.663600	0.172600	0.963750
C171	C17	0.677800	0.229300	0.974300
C181	C18	0.650800	0.278300	0.958680
C191	C19	0.611200	0.268900	0.932000
C201	C20	0.664300	0.342300	0.970490
C211	C21	0.607500	0.146300	0.795260
C221	C22	0.641100	0.095200	0.787300
C231	C23	0.689500	0.100000	0.765030
C241	C24	0.702700	0.157100	0.750980
C251	C25	0.666500	0.206000	0.758420
C261	C26	0.618500	0.200700	0.780180
C271	C27	0.680600	0.266500	0.744500
C281	C28	0.312100	0.922300	0.823700
C291	C29	0.326100	0.959500	0.855070
C301	C30	0.368300	0.004000	0.852620
C311	C31	0.381200	0.041700	0.880120
C321	C32	0.450400	0.105800	0.851370
C331	C33	0.352700	0.027700	0.910470
C341	C34	0.311100	0.981400	0.912130
C351	C35	0.297600	0.947900	0.885400
C361	C36	0.279100	0.971800	0.945210
C371	C37	0.107200	0.922500	0.779630
C381	C38	0.773700	0.503400	0.821440
C391	C39	0.780400	0.542700	0.852110
C401	C40	0.745200	0.533100	0.880650
C411	C41	0.754900	0.565000	0.907780
C421	C42	0.718900	0.550900	0.938690
C431	C43	0.051700	0.948800	0.001020
C441	C44	0.795300	0.612300	0.908650
C451	C45	0.828400	0.627200	0.880220
C461	C46	0.822900	0.590200	0.851960
C471	C47	0.885400	0.706800	0.904680
C481	C48	0.942600	0.743200	0.895200
C491	C49	0.927400	0.784700	0.867190
C501	C50	0.979500	0.850500	0.829790
C511	C51	0.927800	0.871500	0.813430
C521	C52	0.933600	0.906200	0.786150
C531	C53	0.990200	0.924000	0.773590
C541	C54	0.044000	0.903900	0.790680
C551	C55	0.037800	0.867900	0.818730
C561	C56	0.992900	0.701700	0.884050
C571	C57	0.054800	0.620900	0.905520
C581	C58	0.075600	0.603900	0.874200
C591	C59	0.117800	0.558800	0.870620
C601	C60	0.137700	0.540500	0.836760
C611	C61	0.144400	0.533900	0.897660
C621	C62	0.128100	0.554400	0.930290
C631	C63	0.082100	0.595600	0.933250
C641	C64	0.157400	0.527500	0.959230
C651	C65	0.691800	0.117200	0.980680
C661	C66	0.303600	0.375600	0.915700
C671	C67	0.823800	0.979100	0.997200
C681	C68	0.880300	0.945300	0.988660
C691	C69	0.876100	0.894700	0.966940
C701	C70	0.926900	0.862300	0.958640
C711	C71	0.966500	0.780200	0.925570
C721	C72	0.984800	0.878100	0.970360
C731	C73	0.990600	0.928600	0.991030
C741	C74	0.940800	0.961900	0.999370
C751	C75	0.622600	0.073100	0.269240
C761	C76	0.772800	0.954900	0.257170
C771	C77	0.223500	0.618400	0.289700
C781	C78	0.198100	0.647600	0.319670
C791	C79	0.210100	0.624200	0.351010
C801	C80	0.184300	0.646100	0.378880
C811	C81	0.144800	0.697600	0.377390
C821	C82	0.131300	0.723400	0.346050
C831	C83	0.158800	0.695200	0.317340
C841	C84	0.058200	0.786800	0.368630
C851	C85	0.014000	0.836600	0.358030
C861	C86	0.969300	0.848500	0.387100
C871	C87	0.978200	0.817700	0.327780
C881	C88	0.901600	0.788800	0.420490
C891	C89	0.877600	0.838200	0.437030
C901	C90	0.836400	0.827400	0.463750
C911	C91	0.822200	0.770700	0.474300
C921	C92	0.849200	0.721700	0.458680
C931	C93	0.888800	0.731100	0.432000
C941	C94	0.835700	0.657700	0.470490
C951	C95	0.892500	0.853700	0.295260
C961	C96	0.858900	0.904800	0.287300
C971	C97	0.810500	0.900000	0.265030
C981	C98	0.797300	0.842900	0.250980
C991	C99	0.833500	0.794000	0.258420
C1001	C100	0.881500	0.799300	0.280180
C1011	C101	0.819400	0.733500	0.244500
C1021	C102	0.187900	0.077700	0.323700
C1031	C103	0.173900	0.040500	0.355070
C1041	C104	0.131700	0.996000	0.352620
C1051	C105	0.118800	0.958300	0.380120
C1061	C106	0.049600	0.894200	0.351370
C1071	C107	0.147300	0.972300	0.410470
C1081	C108	0.188900	0.018600	0.412130
C1091	C109	0.202400	0.052100	0.385400
C1101	C110	0.220900	0.028200	0.445210
C1111	C111	0.392800	0.077500	0.279630
C1121	C112	0.726300	0.496600	0.321440
C1131	C113	0.719600	0.457300	0.352110
C1141	C114	0.754800	0.466900	0.380650
C1151	C115	0.745100	0.435000	0.407780
C1161	C116	0.781100	0.449100	0.438690
C1171	C117	0.448300	0.051200	0.501020
C1181	C118	0.704700	0.387700	0.408650
C1191	C119	0.671600	0.372800	0.380220
C1201	C120	0.677100	0.409800	0.351960
C1211	C121	0.614600	0.293200	0.404680
C1221	C122	0.557400	0.256800	0.395200
C1231	C123	0.572600	0.215300	0.367190
C1241	C124	0.520500	0.149500	0.329790
C1251	C125	0.572200	0.128500	0.313430
C1261	C126	0.566400	0.093800	0.286150
C1271	C127	0.509800	0.076000	0.273590
C1281	C128	0.456000	0.096100	0.290680
C1291	C129	0.462200	0.132100	0.318730
C1301	C130	0.507100	0.298300	0.384050
C1311	C131	0.445200	0.379100	0.405520
C1321	C132	0.424400	0.396100	0.374200
C1331	C133	0.382200	0.441200	0.370620
C1341	C134	0.362300	0.459500	0.336760
C1351	C135	0.355600	0.466100	0.397660
C1361	C136	0.371900	0.445600	0.430290
C1371	C137	0.417900	0.404400	0.433250
C1381	C138	0.342600	0.472500	0.459230
C1391	C139	0.808200	0.882800	0.480680
C1401	C140	0.196400	0.624400	0.415700
C1411	C141	0.676200	0.020900	0.497200
C1421	C142	0.619700	0.054700	0.488660
C1431	C143	0.623900	0.105300	0.466940
C1441	C144	0.573100	0.137700	0.458640
C1451	C145	0.533500	0.219800	0.425570
C1461	C146	0.515200	0.121900	0.470360
C1471	C147	0.509400	0.071400	0.491030
C1481	C148	0.559200	0.038100	0.499370
C1491	C149	0.122600	0.426900	0.730760
C1501	C150	0.272800	0.545100	0.742830
C1511	C151	0.723500	0.881600	0.710300
C1521	C152	0.698100	0.852400	0.680330
C1531	C153	0.710100	0.875800	0.648990
C1541	C154	0.684300	0.853900	0.621120
C1551	C155	0.644800	0.802400	0.622610
C1561	C156	0.631300	0.776600	0.653950
C1571	C157	0.658800	0.804800	0.682660
C1581	C158	0.558200	0.713200	0.631370
C1591	C159	0.514000	0.663400	0.641970
C1601	C160	0.469300	0.651500	0.612900
C1611	C161	0.478200	0.682300	0.672220
C1621	C162	0.401600	0.711200	0.579510
C1631	C163	0.377600	0.661800	0.562970
C1641	C164	0.336400	0.672600	0.536250
C1651	C165	0.322200	0.729300	0.525700
C1661	C166	0.349200	0.778300	0.541320
C1671	C167	0.388800	0.768900	0.568000
C1681	C168	0.335700	0.842300	0.529510
C1691	C169	0.392500	0.646300	0.704740
C1701	C170	0.358900	0.595200	0.712700
C1711	C171	0.310500	0.600000	0.734970
C1721	C172	0.297300	0.657100	0.749020
C1731	C173	0.333500	0.706000	0.741580
C1741	C174	0.381500	0.700700	0.719820
C1751	C175	0.319400	0.766500	0.755500
C1761	C176	0.687900	0.422300	0.676300
C1771	C177	0.673900	0.459500	0.644930
C1781	C178	0.631700	0.504000	0.647380
C1791	C179	0.618800	0.541700	0.619880
C1801	C180	0.549600	0.605800	0.648630
C1811	C181	0.647300	0.527700	0.589530
C1821	C182	0.688900	0.481400	0.587870
C1831	C183	0.702400	0.447900	0.614600
C1841	C184	0.720900	0.471800	0.554790
C1851	C185	0.892800	0.422500	0.720370
C1861	C186	0.226300	0.003400	0.678560
C1871	C187	0.219600	0.042700	0.647890
C1881	C188	0.254800	0.033100	0.619350
C1891	C189	0.245100	0.065000	0.592220
C1901	C190	0.281100	0.050900	0.561310
C1911	C191	0.948300	0.448800	0.498980
C1921	C192	0.204700	0.112300	0.591350
C1931	C193	0.171600	0.127200	0.619780
C1941	C194	0.177100	0.090200	0.648040
C1951	C195	0.114600	0.206800	0.595320
C1961	C196	0.057400	0.243200	0.604800
C1971	C197	0.072600	0.284700	0.632810
C1981	C198	0.020500	0.350500	0.670210
C1991	C199	0.072200	0.371500	0.686570
C2001	C200	0.066400	0.406200	0.713850
C2011	C201	0.009800	0.424000	0.726410
C2021	C202	0.956000	0.403900	0.709320
C2031	C203	0.962200	0.367900	0.681270
C2041	C204	0.007100	0.201700	0.615950
C2051	C205	0.945200	0.120900	0.594480
C2061	C206	0.924400	0.103900	0.625800
C2071	C207	0.882200	0.058800	0.629380
C2081	C208	0.862300	0.040500	0.663240
C2091	C209	0.855600	0.033900	0.602340
C2101	C210	0.871900	0.054400	0.569710
C2111	C211	0.917900	0.095600	0.566750
C2121	C212	0.842600	0.027500	0.540770
C2131	C213	0.308200	0.617200	0.519320
C2141	C214	0.696400	0.875600	0.584300
C2151	C215	0.176200	0.479100	0.502800
C2161	C216	0.119700	0.445300	0.511340
C2171	C217	0.123900	0.394700	0.533060
C2181	C218	0.073100	0.362300	0.541360
C2191	C219	0.033500	0.280200	0.574430
C2201	C220	0.015200	0.378100	0.529640
C2211	C221	0.009400	0.428600	0.508970
C2221	C222	0.059200	0.461900	0.500630
C2231	C223	0.377400	0.573100	0.230760
C2241	C224	0.227200	0.454900	0.242830
C2251	C225	0.776500	0.118400	0.210300
C2261	C226	0.801900	0.147600	0.180330
C2271	C227	0.789900	0.124200	0.148990
C2281	C228	0.815700	0.146100	0.121120
C2291	C229	0.855200	0.197600	0.122610
C2301	C230	0.868700	0.223400	0.153950
C2311	C231	0.841200	0.195200	0.182660
C2321	C232	0.941800	0.286800	0.131370
C2331	C233	0.986000	0.336600	0.141970
C2341	C234	0.030700	0.348500	0.112900
C2351	C235	0.021800	0.317700	0.172220
C2361	C236	0.098400	0.288800	0.079510
C2371	C237	0.122400	0.338200	0.062970
C2381	C238	0.163600	0.327400	0.036250
C2391	C239	0.177800	0.270700	0.025700
C2401	C240	0.150800	0.221700	0.041320
C2411	C241	0.111200	0.231100	0.068000
C2421	C242	0.164300	0.157700	0.029510
C2431	C243	0.107500	0.353700	0.204740
C2441	C244	0.141100	0.404800	0.212700
C2451	C245	0.189500	0.400000	0.234970
C2461	C246	0.202700	0.342900	0.249020
C2471	C247	0.166500	0.294000	0.241580
C2481	C248	0.118500	0.299300	0.219820
C2491	C249	0.180600	0.233500	0.255500
C2501	C250	0.812100	0.577700	0.176300
C2511	C251	0.826100	0.540500	0.144930
C2521	C252	0.868300	0.496000	0.147380
C2531	C253	0.881200	0.458300	0.119880
C2541	C254	0.950400	0.394200	0.148630
C2551	C255	0.852700	0.472300	0.089530
C2561	C256	0.811100	0.518600	0.087870
C2571	C257	0.797600	0.552100	0.114600
C2581	C258	0.779100	0.528200	0.054790
C2591	C259	0.607200	0.577500	0.220370
C2601	C260	0.273700	0.996600	0.178560
C2611	C261	0.280400	0.957300	0.147890
C2621	C262	0.245200	0.966900	0.119350
C2631	C263	0.254900	0.935000	0.092220
C2641	C264	0.218900	0.949100	0.061310
C2651	C265	0.551700	0.551200	0.998980
C2661	C266	0.295300	0.887700	0.091350
C2671	C267	0.328400	0.872800	0.119780
C2681	C268	0.322900	0.909800	0.148040
C2691	C269	0.385400	0.793200	0.095320
C2701	C270	0.442600	0.756800	0.104800
C2711	C271	0.427400	0.715300	0.132810
C2721	C272	0.479500	0.649500	0.170210
C2731	C273	0.427800	0.628500	0.186570
C2741	C274	0.433600	0.593800	0.213850
C2751	C275	0.490200	0.576000	0.226410
C2761	C276	0.544000	0.596100	0.209320
C2771	C277	0.537800	0.632100	0.181270
C2781	C278	0.492900	0.798300	0.115950
C2791	C279	0.554800	0.879100	0.094480
C2801	C280	0.575600	0.896100	0.125800
C2811	C281	0.617800	0.941200	0.129380
C2821	C282	0.637700	0.959500	0.163240
C2831	C283	0.644400	0.966100	0.102340
C2841	C284	0.628100	0.945600	0.069710
C2851	C285	0.582100	0.904400	0.066750
C2861	C286	0.657400	0.972500	0.040770
C2871	C287	0.191800	0.382800	0.019320
C2881	C288	0.803600	0.124400	0.084300
C2891	C289	0.323800	0.520900	0.002800
C2901	C290	0.380300	0.554700	0.011340
C2911	C291	0.376100	0.605300	0.033060
C2921	C292	0.426900	0.637700	0.041360
C2931	C293	0.466500	0.719800	0.074430
C2941	C294	0.484800	0.621900	0.029640
C2951	C295	0.490600	0.571400	0.008970
C2961	C296	0.440800	0.538100	0.000630
O11	O1	0.882380	0.958030	0.742470
O21	O2	0.827090	0.909090	0.780110
O31	O3	0.713100	0.997160	0.771390
O41	O4	0.768540	0.051940	0.735600
O51	O5	0.238500	0.420000	0.792030
O61	O6	0.293700	0.363780	0.760900
O71	O7	0.404370	0.229440	0.841020
O81	O8	0.561770	0.135510	0.819110
O91	O9	0.559980	0.208390	0.893880
O101	O10	0.645190	0.309570	0.752070
O111	O11	0.725410	0.270590	0.724470
O121	O12	0.629170	0.382430	0.957690
O131	O13	0.703600	0.350610	0.990270
O141	O14	0.751330	0.395870	0.751850
O151	O15	0.344880	0.933100	0.798890
O161	O16	0.272320	0.883800	0.825180
O171	O17	0.151050	0.904700	0.797740
O181	O18	0.113060	0.951500	0.753480
O191	O19	0.807500	0.515100	0.796970
O201	O20	0.733500	0.465300	0.822040
O211	O21	0.055410	0.994680	0.019980
O221	O22	0.098700	0.918740	0.990860
O231	O23	0.678120	0.511560	0.934750
O241	O24	0.729220	0.578440	0.965500
O251	O25	0.179910	0.021580	0.992370
O261	O26	0.297330	0.003860	0.969800
O271	O27	0.236150	0.934130	0.946670
O281	O28	0.870130	0.671600	0.877450
O291	O29	0.420170	0.089590	0.880560
O301	O30	0.979580	0.816410	0.858450
O311	O31	0.118600	0.567800	0.811210
O321	O32	0.171180	0.495630	0.833780
O331	O33	0.143980	0.547750	0.987520
O341	O34	0.194300	0.486700	0.954960
O351	O35	0.677240	0.066570	0.968490
O361	O36	0.726630	0.127390	0.003960
O371	O37	0.777210	0.961700	0.984390
O381	O38	0.830430	0.024010	0.016060
O391	O39	0.267600	0.419800	0.916210
O401	O40	0.325800	0.358000	0.938650
O411	O41	0.914930	0.815730	0.937070
O421	O42	0.011070	0.664910	0.911240
O431	O43	0.617620	0.041970	0.242470
O441	O44	0.672910	0.090910	0.280110
O451	O45	0.786900	0.002840	0.271390
O461	O46	0.731460	0.948060	0.235600
O471	O47	0.261500	0.580000	0.292030
O481	O48	0.206300	0.636220	0.260900
O491	O49	0.095630	0.770560	0.341020
O501	O50	0.938230	0.864490	0.319110
O511	O51	0.940020	0.791610	0.393880
O521	O52	0.854810	0.690430	0.252070
O531	O53	0.774590	0.729410	0.224470
O541	O54	0.870830	0.617570	0.457690
O551	O55	0.796400	0.649390	0.490270
O561	O56	0.748670	0.604130	0.251850
O571	O57	0.155120	0.066900	0.298890
O581	O58	0.227680	0.116200	0.325180
O591	O59	0.348950	0.095300	0.297740
O601	O60	0.386940	0.048500	0.253480
O611	O61	0.692500	0.484900	0.296970
O621	O62	0.766500	0.534700	0.322040
O631	O63	0.444590	0.005320	0.519980
O641	O64	0.401300	0.081260	0.490860
O651	O65	0.821880	0.488440	0.434750
O661	O66	0.770780	0.421560	0.465500
O671	O67	0.320090	0.978420	0.492370
O681	O68	0.202670	0.996140	0.469800
O691	O69	0.263850	0.065870	0.446670
O701	O70	0.629870	0.328400	0.377450
O711	O71	0.079830	0.910410	0.380560
O721	O72	0.520420	0.183590	0.358450
O731	O73	0.381400	0.432200	0.311210
O741	O74	0.328820	0.504370	0.333780
O751	O75	0.356020	0.452250	0.487520
O761	O76	0.305700	0.513300	0.454960
O771	O77	0.822760	0.933430	0.468490
O781	O78	0.773370	0.872610	0.503960
O791	O79	0.722790	0.038300	0.484390
O801	O80	0.669570	0.975990	0.516060
O811	O81	0.232400	0.580200	0.416210
O821	O82	0.174200	0.642000	0.438650
O831	O83	0.585070	0.184270	0.437070
O841	O84	0.488930	0.335090	0.411240
O851	O85	0.117620	0.458030	0.757530
O861	O86	0.172910	0.409090	0.719890
O871	O87	0.286900	0.497160	0.728610
O881	O88	0.231460	0.551940	0.764400
O891	O89	0.761500	0.920000	0.707970
O901	O90	0.706300	0.863780	0.739100
O911	O91	0.595630	0.729440	0.658980
O921	O92	0.438230	0.635510	0.680890
O931	O93	0.440020	0.708390	0.606120
O941	O94	0.354810	0.809570	0.747930
O951	O95	0.274590	0.770590	0.775530
O961	O96	0.370830	0.882430	0.542310
O971	O97	0.296400	0.850610	0.509730
O981	O98	0.248670	0.895870	0.748150
O991	O99	0.655120	0.433100	0.701110
O1001	O100	0.727680	0.383800	0.674820
O1011	O101	0.848950	0.404700	0.702260
O1021	O102	0.886940	0.451500	0.746520
O1031	O103	0.192500	0.015100	0.703030
O1041	O104	0.266500	0.965300	0.677960
O1051	O105	0.944590	0.494680	0.480020
O1061	O106	0.901300	0.418740	0.509140
O1071	O107	0.321880	0.011560	0.565250
O1081	O108	0.270780	0.078440	0.534500
O1091	O109	0.820090	0.521580	0.507630
O1101	O110	0.702670	0.503860	0.530200
O1111	O111	0.763850	0.434130	0.553330
O1121	O112	0.129870	0.171600	0.622550
O1131	O113	0.579830	0.589590	0.619440
O1141	O114	0.020420	0.316410	0.641550
O1151	O115	0.881400	0.067800	0.688790
O1161	O116	0.828820	0.995630	0.666220
O1171	O117	0.856020	0.047750	0.512480
O1181	O118	0.805700	0.986700	0.545040
O1191	O119	0.322760	0.566570	0.531510
O1201	O120	0.273370	0.627390	0.496040
O1211	O121	0.222790	0.461700	0.515610
O1221	O122	0.169570	0.524010	0.483940
O1231	O123	0.732400	0.919800	0.583790
O1241	O124	0.674200	0.858000	0.561350
O1251	O125	0.085070	0.315730	0.562930
O1261	O126	0.988930	0.164910	0.588760
O1271	O127	0.382380	0.541970	0.257530
O1281	O128	0.327090	0.590910	0.219890
O1291	O129	0.213100	0.502840	0.228610
O1301	O130	0.268540	0.448060	0.264400
O1311	O131	0.738500	0.080000	0.207970
O1321	O132	0.793700	0.136220	0.239100
O1331	O133	0.904370	0.270560	0.158980
O1341	O134	0.061770	0.364490	0.180890
O1351	O135	0.059980	0.291610	0.106120
O1361	O136	0.145190	0.190430	0.247930
O1371	O137	0.225410	0.229410	0.275530
O1381	O138	0.129170	0.117570	0.042310
O1391	O139	0.203600	0.149390	0.009730
O1401	O140	0.251330	0.104130	0.248150
O1411	O141	0.844880	0.566900	0.201110
O1421	O142	0.772320	0.616200	0.174820
O1431	O143	0.651050	0.595300	0.202260
O1441	O144	0.613060	0.548500	0.246520
O1451	O145	0.307500	0.984900	0.203030
O1461	O146	0.233500	0.034700	0.177960
O1471	O147	0.555410	0.505320	0.980020
O1481	O148	0.598700	0.581260	0.009140
O1491	O149	0.178120	0.988440	0.065250
O1501	O150	0.229220	0.921560	0.034500
O1511	O151	0.679910	0.478420	0.007630
O1521	O152	0.797330	0.496140	0.030200
O1531	O153	0.736150	0.565870	0.053330
O1541	O154	0.370130	0.828400	0.122550
O1551	O155	0.920170	0.410410	0.119440
O1561	O156	0.479580	0.683590	0.141550
O1571	O157	0.618600	0.932200	0.188790
O1581	O158	0.671180	0.004370	0.166220
O1591	O159	0.643980	0.952250	0.012480
O1601	O160	0.694300	0.013300	0.045040
O1611	O161	0.177240	0.433430	0.031510
O1621	O162	0.226630	0.372610	0.996040
O1631	O163	0.277210	0.538300	0.015610
O1641	O164	0.330430	0.475990	0.983940
O1651	O165	0.767600	0.080200	0.083790
O1661	O166	0.825800	0.142000	0.061350
O1671	O167	0.414930	0.684270	0.062930
O1681	O168	0.511070	0.835090	0.088760
