data_WEHNAA_SL_part_PM
_symmetry_space_group_name_H-M	'P1'
_cell_length_a	15.391500
_cell_length_b	15.391500
_cell_length_c	9.703000
_cell_angle_alpha	95.222000
_cell_angle_beta	95.222000
_cell_angle_gamma	32.513300
_symmetry_Int_Tables_number 1

loop_
_symmetry_equiv_pos_as_xyz
'x,y,z'

loop_
_atom_site_label
_atom_site_type_symbol
_atom_site_fract_x
_atom_site_fract_y
_atom_site_fract_z
P11	P1	0.276380	0.424580	0.938900
P21	P2	0.800740	0.772740	0.759900
C31	C3	0.442500	0.209700	0.959700
C41	C4	0.675200	0.931200	0.892300
C51	C5	0.634860	0.113660	0.823300
C61	C6	0.757700	0.038300	0.934800
C71	C7	0.843190	0.047190	0.909700
C81	C8	0.966590	0.983590	0.009600
N91	N9	0.555250	0.096250	0.843700
O101	O10	0.140520	0.498720	0.016900
O111	O11	0.332660	0.467660	0.004900
O121	O12	0.237000	0.467000	0.789100
O131	O13	0.697200	0.839600	0.632400
O141	O14	0.872360	0.629960	0.813600
O151	O15	0.922730	0.735730	0.719500
H161	H16	0.944990	0.303160	0.780670
H171	H17	0.751510	0.464040	0.679510
H181	H18	0.094060	0.149780	0.557360
H191	H19	0.896890	0.304780	0.461930
H201	H20	0.820370	0.252700	0.606310
H211	H21	0.021960	0.087710	0.690480
H221	H22	0.153080	0.926970	0.487810
H231	H23	0.964900	0.085350	0.382330
H241	H24	0.102570	0.242900	0.524320
H251	H25	0.059130	0.397300	0.558440
H261	H26	0.172530	0.517150	0.555170
H271	H27	0.184990	0.392720	0.479430
P281	P28	0.575420	0.723620	0.561100
P291	P29	0.227260	0.199260	0.740100
C301	C30	0.790300	0.557500	0.540300
C311	C31	0.068800	0.324800	0.607700
C321	C32	0.886340	0.365140	0.676700
C331	C33	0.961700	0.242300	0.565200
C341	C34	0.952810	0.156810	0.590300
C351	C35	0.016410	0.033410	0.490400
N361	N36	0.903750	0.444750	0.656300
O371	O37	0.501280	0.859480	0.483100
O381	O38	0.532340	0.667340	0.495100
O391	O39	0.533000	0.763000	0.710900
O401	O40	0.160400	0.302800	0.867600
O411	O41	0.370040	0.127640	0.686400
O421	O42	0.264270	0.077270	0.780500
H431	H43	0.696840	0.055010	0.719330
H441	H44	0.535960	0.248490	0.820490
H451	H45	0.850220	0.905940	0.942640
H461	H46	0.695220	0.103110	0.038070
H471	H47	0.747300	0.179630	0.893690
H481	H48	0.912290	0.978040	0.809520
H491	H49	0.073030	0.846920	0.012190
H501	H50	0.914650	0.035100	0.117670
H511	H51	0.757100	0.897430	0.975680
H521	H52	0.602700	0.940870	0.941560
H531	H53	0.482850	0.827470	0.944830
H541	H54	0.607280	0.815010	0.020570
P551	P55	0.723620	0.575420	0.061100
P561	P56	0.199260	0.227260	0.240100
C571	C57	0.557500	0.790300	0.040300
C581	C58	0.324800	0.068800	0.107700
C591	C59	0.365140	0.886340	0.176700
C601	C60	0.242300	0.961700	0.065200
C611	C61	0.156810	0.952810	0.090300
C621	C62	0.033410	0.016410	0.990400
N631	N63	0.444750	0.903750	0.156300
O641	O64	0.859480	0.501280	0.983100
O651	O65	0.667340	0.532340	0.995100
O661	O66	0.763000	0.533000	0.210900
O671	O67	0.302800	0.160400	0.367600
O681	O68	0.127640	0.370040	0.186400
O691	O69	0.077270	0.264270	0.280500
H701	H70	0.055010	0.696840	0.219330
H711	H71	0.248490	0.535960	0.320490
H721	H72	0.905940	0.850220	0.442640
H731	H73	0.103110	0.695220	0.538070
H741	H74	0.179630	0.747300	0.393690
H751	H75	0.978040	0.912290	0.309520
H761	H76	0.846920	0.073030	0.512190
H771	H77	0.035100	0.914650	0.617670
H781	H78	0.897430	0.757100	0.475680
H791	H79	0.940870	0.602700	0.441560
H801	H80	0.827470	0.482850	0.444830
H811	H81	0.815010	0.607280	0.520570
P821	P82	0.424580	0.276380	0.438900
P831	P83	0.772740	0.800740	0.259900
C841	C84	0.209700	0.442500	0.459700
C851	C85	0.931200	0.675200	0.392300
C861	C86	0.113660	0.634860	0.323300
C871	C87	0.038300	0.757700	0.434800
C881	C88	0.047190	0.843190	0.409700
C891	C89	0.983590	0.966590	0.509600
N901	N90	0.096250	0.555250	0.343700
O911	O91	0.498720	0.140520	0.516900
O921	O92	0.467660	0.332660	0.504900
O931	O93	0.467000	0.237000	0.289100
O941	O94	0.839600	0.697200	0.132400
O951	O95	0.629960	0.872360	0.313600
O961	O96	0.735730	0.922730	0.219500
H971	H97	0.303160	0.944990	0.280670
H981	H98	0.464040	0.751510	0.179510
H991	H99	0.149780	0.094060	0.057360
H1001	H100	0.304780	0.896890	0.961930
H1011	H101	0.252700	0.820370	0.106310
H1021	H102	0.087710	0.021960	0.190480
H1031	H103	0.926970	0.153080	0.987810
H1041	H104	0.085350	0.964900	0.882330
H1051	H105	0.242900	0.102570	0.024320
H1061	H106	0.397300	0.059130	0.058440
H1071	H107	0.517150	0.172530	0.055170
H1081	H108	0.392720	0.184990	0.979430
Mg1091	Mg109	0.000000	0.500000	0.000000
Mg1101	Mg110	0.500000	0.000000	0.500000
