data_WEHRIL_charged_PM
_symmetry_space_group_name_H-M	'P1'
_cell_length_a	15.118500
_cell_length_b	15.118500
_cell_length_c	19.734000
_cell_angle_alpha	107.507000
_cell_angle_beta	107.507000
_cell_angle_gamma	100.533000
_symmetry_Int_Tables_number 1

loop_
_symmetry_equiv_pos_as_xyz
'x,y,z'

loop_
_atom_site_label
_atom_site_type_symbol
_atom_site_fract_x
_atom_site_fract_y
_atom_site_fract_z
Ag11	Ag1	0.567060	0.326840	0.647430
Ag21	Ag2	0.673160	0.432940	0.852570
Ag31	Ag3	0.432940	0.673160	0.352570
Ag41	Ag4	0.326840	0.567060	0.147430
H11	H1	0.885700	0.533700	0.930200
H21	H2	0.003900	0.633300	0.049800
H31	H3	0.086500	0.791500	0.069900
H41	H4	0.935500	0.743300	0.850100
H51	H5	0.231500	0.104300	0.106800
H61	H6	0.303200	0.262400	0.125900
H71	H7	0.154600	0.205600	0.904100
H81	H8	0.080700	0.049900	0.887800
H91	H9	0.591100	0.450900	0.559700
H101	H10	0.570600	0.444200	0.438300
H111	H11	0.699500	0.497900	0.406900
H121	H12	0.876700	0.572500	0.626500
H131	H13	0.137100	0.678500	0.588400
H141	H14	0.277100	0.742700	0.573900
H151	H15	0.128800	0.676600	0.351000
H161	H16	0.984200	0.615400	0.364800
H171	H17	0.466300	0.114300	0.569800
H181	H18	0.366700	0.996100	0.450200
H191	H19	0.208500	0.913500	0.430100
H201	H20	0.256700	0.064500	0.649900
H211	H21	0.895700	0.768500	0.393200
H221	H22	0.737600	0.696800	0.374100
H231	H23	0.794400	0.845400	0.595900
H241	H24	0.950100	0.919300	0.612200
H251	H25	0.549100	0.408900	0.940300
H261	H26	0.555800	0.429400	0.061700
H271	H27	0.502100	0.300500	0.093100
H281	H28	0.427500	0.123300	0.873500
H291	H29	0.321500	0.862900	0.911600
H301	H30	0.257300	0.722900	0.926100
H311	H31	0.323400	0.871200	0.149000
H321	H32	0.384600	0.015800	0.135200
H331	H33	0.114300	0.466300	0.069800
H341	H34	0.996100	0.366700	0.950200
H351	H35	0.913500	0.208500	0.930100
H361	H36	0.064500	0.256700	0.149900
H371	H37	0.768500	0.895700	0.893200
H381	H38	0.696800	0.737600	0.874100
H391	H39	0.845400	0.794400	0.095900
H401	H40	0.919300	0.950100	0.112200
H411	H41	0.408900	0.549100	0.440300
H421	H42	0.429400	0.555800	0.561700
H431	H43	0.300500	0.502100	0.593100
H441	H44	0.123300	0.427500	0.373500
H451	H45	0.862900	0.321500	0.411600
H461	H46	0.722900	0.257300	0.426100
H471	H47	0.871200	0.323400	0.649000
H481	H48	0.015800	0.384600	0.635200
H491	H49	0.533700	0.885700	0.430200
H501	H50	0.633300	0.003900	0.549800
H511	H51	0.791500	0.086500	0.569900
H521	H52	0.743300	0.935500	0.350100
H531	H53	0.104300	0.231500	0.606800
H541	H54	0.262400	0.303200	0.625900
H551	H55	0.205600	0.154600	0.404100
H561	H56	0.049900	0.080700	0.387800
H571	H57	0.450900	0.591100	0.059700
H581	H58	0.444200	0.570600	0.938300
H591	H59	0.497900	0.699500	0.906900
H601	H60	0.572500	0.876700	0.126500
H611	H61	0.678500	0.137100	0.088400
H621	H62	0.742700	0.277100	0.073900
H631	H63	0.676600	0.128800	0.851000
H641	H64	0.615400	0.984200	0.864800
C11	C1	0.825700	0.564100	0.802300
C21	C2	0.901400	0.629200	0.880000
C31	C3	0.920000	0.596200	0.938500
C41	C4	0.989700	0.655900	0.010100
C51	C5	0.039000	0.751000	0.022100
C61	C6	0.016800	0.784600	0.963100
C71	C7	0.948900	0.722300	0.890800
C81	C8	0.066200	0.880000	0.975400
C91	C9	0.103100	0.959900	0.983300
C101	C10	0.149500	0.060700	0.994900
C111	C11	0.216000	0.125000	0.066100
C121	C12	0.259200	0.218800	0.077600
C131	C13	0.236300	0.247900	0.016000
C141	C14	0.277200	0.348800	0.029400
C151	C15	0.170000	0.185400	0.945100
C161	C16	0.126700	0.092500	0.935600
C171	C17	0.752000	0.514200	0.682300
C181	C18	0.738100	0.511300	0.605500
C191	C19	0.644500	0.473300	0.548600
C201	C20	0.633000	0.469800	0.476100
C211	C21	0.709300	0.502300	0.456800
C221	C22	0.802500	0.542100	0.514600
C231	C23	0.814700	0.545700	0.588100
C241	C24	0.886600	0.575200	0.498900
C251	C25	0.955200	0.603600	0.488800
C261	C26	0.043900	0.640700	0.477600
C271	C27	0.134600	0.678600	0.540700
C281	C28	0.218400	0.715400	0.531800
C291	C29	0.215900	0.711900	0.460800
C301	C30	0.304900	0.742900	0.450800
C311	C31	0.129700	0.676500	0.398400
C321	C32	0.042900	0.640100	0.406900
C331	C33	0.435900	0.174300	0.697700
C341	C34	0.370800	0.098600	0.620000
C351	C35	0.403800	0.080000	0.561500
C361	C36	0.344100	0.010300	0.489900
C371	C37	0.249000	0.961000	0.477900
C381	C38	0.215400	0.983200	0.536900
C391	C39	0.277700	0.051100	0.609200
C401	C40	0.120000	0.933800	0.524600
C411	C41	0.040100	0.896900	0.516700
C421	C42	0.939300	0.850500	0.505100
C431	C43	0.875000	0.784000	0.433900
C441	C44	0.781200	0.740800	0.422400
C451	C45	0.752100	0.763700	0.484000
C461	C46	0.651200	0.722800	0.470600
C471	C47	0.814600	0.830000	0.554900
C481	C48	0.907500	0.873300	0.564400
C491	C49	0.485800	0.248000	0.817700
C501	C50	0.488700	0.261900	0.894500
C511	C51	0.526700	0.355500	0.951400
C521	C52	0.530200	0.367000	0.023900
C531	C53	0.497700	0.290700	0.043200
C541	C54	0.457900	0.197500	0.985400
C551	C55	0.454300	0.185300	0.911900
C561	C56	0.424800	0.113400	0.001100
C571	C57	0.396400	0.044800	0.011200
C581	C58	0.359300	0.956100	0.022400
C591	C59	0.321400	0.865400	0.959300
C601	C60	0.284600	0.781600	0.968200
C611	C61	0.288100	0.784100	0.039200
C621	C62	0.257100	0.695100	0.049200
C631	C63	0.323500	0.870300	0.101600
C641	C64	0.359900	0.957100	0.093100
C651	C65	0.174300	0.435900	0.197700
C661	C66	0.098600	0.370800	0.120000
C671	C67	0.080000	0.403800	0.061500
C681	C68	0.010300	0.344100	0.989900
C691	C69	0.961000	0.249000	0.977900
C701	C70	0.983200	0.215400	0.036900
C711	C71	0.051100	0.277700	0.109200
C721	C72	0.933800	0.120000	0.024600
C731	C73	0.896900	0.040100	0.016700
C741	C74	0.850500	0.939300	0.005100
C751	C75	0.784000	0.875000	0.933900
C761	C76	0.740800	0.781200	0.922400
C771	C77	0.763700	0.752100	0.984000
C781	C78	0.722800	0.651200	0.970600
C791	C79	0.830000	0.814600	0.054900
C801	C80	0.873300	0.907500	0.064400
C811	C81	0.248000	0.485800	0.317700
C821	C82	0.261900	0.488700	0.394500
C831	C83	0.355500	0.526700	0.451400
C841	C84	0.367000	0.530200	0.523900
C851	C85	0.290700	0.497700	0.543200
C861	C86	0.197500	0.457900	0.485400
C871	C87	0.185300	0.454300	0.411900
C881	C88	0.113400	0.424800	0.501100
C891	C89	0.044800	0.396400	0.511200
C901	C90	0.956100	0.359300	0.522400
C911	C91	0.865400	0.321400	0.459300
C921	C92	0.781600	0.284600	0.468200
C931	C93	0.784100	0.288100	0.539200
C941	C94	0.695100	0.257100	0.549200
C951	C95	0.870300	0.323500	0.601600
C961	C96	0.957100	0.359900	0.593100
C971	C97	0.564100	0.825700	0.302300
C981	C98	0.629200	0.901400	0.380000
C991	C99	0.596200	0.920000	0.438500
C1001	C100	0.655900	0.989700	0.510100
C1011	C101	0.751000	0.039000	0.522100
C1021	C102	0.784600	0.016800	0.463100
C1031	C103	0.722300	0.948900	0.390800
C1041	C104	0.880000	0.066200	0.475400
C1051	C105	0.959900	0.103100	0.483300
C1061	C106	0.060700	0.149500	0.494900
C1071	C107	0.125000	0.216000	0.566100
C1081	C108	0.218800	0.259200	0.577600
C1091	C109	0.247900	0.236300	0.516000
C1101	C110	0.348800	0.277200	0.529400
C1111	C111	0.185400	0.170000	0.445100
C1121	C112	0.092500	0.126700	0.435600
C1131	C113	0.514200	0.752000	0.182300
C1141	C114	0.511300	0.738100	0.105500
C1151	C115	0.473300	0.644500	0.048600
C1161	C116	0.469800	0.633000	0.976100
C1171	C117	0.502300	0.709300	0.956800
C1181	C118	0.542100	0.802500	0.014600
C1191	C119	0.545700	0.814700	0.088100
C1201	C120	0.575200	0.886600	0.998900
C1211	C121	0.603600	0.955200	0.988800
C1221	C122	0.640700	0.043900	0.977600
C1231	C123	0.678600	0.134600	0.040700
C1241	C124	0.715400	0.218400	0.031800
C1251	C125	0.711900	0.215900	0.960800
C1261	C126	0.742900	0.304900	0.950800
C1271	C127	0.676500	0.129700	0.898400
C1281	C128	0.640100	0.042900	0.906900
N11	N1	0.699900	0.463300	0.705100
N21	N2	0.749700	0.498300	0.786200
N31	N3	0.309500	0.427900	0.039600
N41	N4	0.374300	0.767100	0.443800
N51	N5	0.536700	0.300100	0.794900
N61	N6	0.501700	0.250300	0.713800
N71	N7	0.572100	0.690500	0.460400
N81	N8	0.232900	0.625700	0.056200
N91	N9	0.300100	0.536700	0.294900
N101	N10	0.250300	0.501700	0.213800
N111	N11	0.690500	0.572100	0.960400
N121	N12	0.625700	0.232900	0.556200
N131	N13	0.463300	0.699900	0.205100
N141	N14	0.498300	0.749700	0.286200
N151	N15	0.427900	0.309500	0.539600
N161	N16	0.767100	0.374300	0.943800
O11	O1	0.833600	0.580800	0.740800
O21	O2	0.419200	0.166400	0.759200
O31	O3	0.166400	0.419200	0.259200
O41	O4	0.580800	0.833600	0.240800
Cl11	Cl1	0.525800	0.474200	0.250000
O51	O5	0.618100	0.478900	0.259000
O61	O6	0.521500	0.527300	0.314500
O71	O7	0.521100	0.381900	0.241000
O81	O8	0.472700	0.478500	0.185500
Cl21	Cl2	0.474200	0.525800	0.750000
O91	O9	0.381900	0.521100	0.741000
O101	O10	0.478500	0.472700	0.685500
O111	O11	0.478900	0.618100	0.759000
O121	O12	0.527300	0.521500	0.814500
Cl31	Cl3	0.775800	0.224200	0.750000
O131	O13	0.823900	0.207100	0.811800
O141	O14	0.681500	0.195500	0.741400
O151	O15	0.792900	0.176100	0.688200
O161	O16	0.804500	0.318500	0.758600
Cl41	Cl4	0.224200	0.775800	0.250000
O171	O17	0.176100	0.792900	0.188200
O181	O18	0.318500	0.804500	0.258600
O191	O19	0.207100	0.823900	0.311800
O201	O20	0.195500	0.681500	0.241400
