data_WEMCEY_clean_PM
_symmetry_space_group_name_H-M	'P1'
_cell_length_a	16.226000
_cell_length_b	16.564100
_cell_length_c	16.564100
_cell_angle_alpha	76.119500
_cell_angle_beta	60.673000
_cell_angle_gamma	60.673000
_symmetry_Int_Tables_number 1

loop_
_symmetry_equiv_pos_as_xyz
'x,y,z'

loop_
_atom_site_label
_atom_site_type_symbol
_atom_site_fract_x
_atom_site_fract_y
_atom_site_fract_z
Sm11	Sm1	0.705110	0.532540	0.379800
Sm21	Sm2	0.625950	0.886740	0.023940
Sm31	Sm3	0.117450	0.967460	0.120210
Sm41	Sm4	0.036630	0.613260	0.476060
Sm51	Sm5	0.084920	0.620200	0.032530
Sm61	Sm6	0.649890	0.976060	0.386740
Sm71	Sm7	0.237650	0.879800	0.467460
Sm81	Sm8	0.512690	0.523940	0.113260
Sm91	Sm9	0.294890	0.467460	0.620200
Sm101	Sm10	0.374050	0.113260	0.976060
Sm111	Sm11	0.882550	0.032540	0.879790
Sm121	Sm12	0.963370	0.386740	0.523940
Sm131	Sm13	0.915090	0.379790	0.967470
Sm141	Sm14	0.350110	0.023940	0.613260
Sm151	Sm15	0.762340	0.120210	0.532540
Sm161	Sm16	0.487310	0.476060	0.886740
H11	H1	0.558600	0.748600	0.253200
H21	H2	0.583400	0.782300	0.400300
H31	H3	0.060400	0.751400	0.246800
H41	H4	0.266000	0.717700	0.099700
H51	H5	0.811800	0.746800	0.248600
H61	H6	0.983700	0.599700	0.282300
H71	H7	0.307200	0.753200	0.251400
H81	H8	0.365700	0.900300	0.217700
H91	H9	0.441400	0.251400	0.746800
H101	H10	0.416600	0.217700	0.599700
H111	H11	0.939600	0.248600	0.753200
H121	H12	0.734000	0.282300	0.900300
H131	H13	0.188200	0.253200	0.751400
H141	H14	0.016300	0.400300	0.717700
H151	H15	0.692800	0.246800	0.748600
H161	H16	0.634300	0.099700	0.782300
C11	C1	0.631200	0.722600	0.217200
C21	C2	0.782600	0.702700	0.106300
C31	C3	0.794800	0.632500	0.170500
C41	C4	0.855500	0.723900	0.015900
C51	C5	0.886800	0.552400	0.179000
C61	C6	0.639700	0.759100	0.414700
C71	C7	0.772100	0.663700	0.442900
C81	C8	0.751900	0.753500	0.451700
C91	C9	0.848900	0.570500	0.453100
C101	C10	0.805400	0.794000	0.469400
C111	C11	0.071000	0.777400	0.282800
C121	C12	0.091600	0.797300	0.393700
C131	C13	0.097800	0.867500	0.329500
C141	C14	0.095300	0.776100	0.484100
C151	C15	0.118200	0.947600	0.321000
C161	C16	0.313500	0.740900	0.085300
C171	C17	0.378700	0.836300	0.057100
C181	C18	0.457100	0.746500	0.048300
C191	C19	0.372500	0.929500	0.046900
C201	C20	0.568800	0.706000	0.030600
C211	C21	0.848400	0.782800	0.222600
C221	C22	0.888900	0.893700	0.202700
C231	C23	0.965300	0.829500	0.132500
C241	C24	0.871400	0.984100	0.223900
C251	C25	0.065800	0.821000	0.052400
C261	C26	0.054400	0.585300	0.259100
C271	C27	0.215000	0.557100	0.163700
C281	C28	0.203600	0.548300	0.253500
C291	C29	0.302000	0.546900	0.070500
C301	C30	0.274800	0.530600	0.294000
C311	C31	0.353800	0.717200	0.277400
C321	C32	0.485300	0.606300	0.297300
C331	C33	0.427300	0.670500	0.367500
C341	C34	0.579400	0.515900	0.276100
C351	C35	0.439200	0.679000	0.447600
C361	C36	0.398800	0.914700	0.240900
C371	C37	0.435800	0.942900	0.336300
C381	C38	0.505400	0.951700	0.246500
C391	C39	0.419400	0.953100	0.429500
C401	C40	0.599400	0.969400	0.206000
C411	C41	0.368800	0.277400	0.782800
C421	C42	0.217400	0.297300	0.893700
C431	C43	0.205200	0.367500	0.829500
C441	C44	0.144500	0.276100	0.984100
C451	C45	0.113200	0.447600	0.821000
C461	C46	0.360300	0.240900	0.585300
C471	C47	0.227900	0.336300	0.557100
C481	C48	0.248100	0.246500	0.548300
C491	C49	0.151100	0.429500	0.546900
C501	C50	0.194600	0.206000	0.530600
C511	C51	0.929000	0.222600	0.717200
C521	C52	0.908400	0.202700	0.606300
C531	C53	0.902200	0.132500	0.670500
C541	C54	0.904700	0.223900	0.515900
C551	C55	0.881800	0.052400	0.679000
C561	C56	0.686500	0.259100	0.914700
C571	C57	0.621300	0.163700	0.942900
C581	C58	0.542900	0.253500	0.951700
C591	C59	0.627500	0.070500	0.953100
C601	C60	0.431200	0.294000	0.969400
C611	C61	0.151600	0.217200	0.777400
C621	C62	0.111100	0.106300	0.797300
C631	C63	0.034700	0.170500	0.867500
C641	C64	0.128600	0.015900	0.776100
C651	C65	0.934200	0.179000	0.947600
C661	C66	0.945600	0.414700	0.740900
C671	C67	0.785000	0.442900	0.836300
C681	C68	0.796400	0.451700	0.746500
C691	C69	0.698000	0.453100	0.929500
C701	C70	0.725200	0.469400	0.706000
C711	C71	0.646200	0.282800	0.722600
C721	C72	0.514700	0.393700	0.702700
C731	C73	0.572700	0.329500	0.632500
C741	C74	0.420600	0.484100	0.723900
C751	C75	0.560800	0.321000	0.552400
C761	C76	0.601200	0.085300	0.759100
C771	C77	0.564200	0.057100	0.663700
C781	C78	0.494600	0.048300	0.753500
C791	C79	0.580600	0.046900	0.570500
C801	C80	0.400600	0.030600	0.794000
N11	N1	0.697100	0.645300	0.241700
N21	N2	0.677200	0.760300	0.136500
N31	N3	0.668100	0.813300	0.432900
N41	N4	0.699500	0.668100	0.418900
N51	N5	0.084100	0.854700	0.258300
N61	N6	0.074000	0.739700	0.363500
N71	N7	0.414300	0.686700	0.067100
N81	N8	0.286500	0.831900	0.081100
N91	N9	0.938800	0.758300	0.145300
N101	N10	0.813700	0.863500	0.260300
N111	N11	0.101000	0.567100	0.313300
N121	N12	0.118400	0.581100	0.168100
N131	N13	0.342400	0.741700	0.354700
N141	N14	0.437500	0.636500	0.239700
N151	N15	0.481400	0.932900	0.186700
N161	N16	0.367600	0.918900	0.331900
N171	N17	0.302900	0.354700	0.758300
N181	N18	0.322800	0.239700	0.863500
N191	N19	0.331900	0.186700	0.567100
N201	N20	0.300500	0.331900	0.581100
N211	N21	0.915900	0.145300	0.741700
N221	N22	0.926000	0.260300	0.636500
N231	N23	0.585700	0.313300	0.932900
N241	N24	0.713500	0.168100	0.918900
N251	N25	0.061200	0.241700	0.854700
N261	N26	0.186300	0.136500	0.739700
N271	N27	0.899000	0.432900	0.686700
N281	N28	0.881600	0.418900	0.831900
N291	N29	0.657600	0.258300	0.645300
N301	N30	0.562500	0.363500	0.760300
N311	N31	0.518600	0.067100	0.813300
N321	N32	0.632400	0.081100	0.668100
O11	O1	0.867400	0.492800	0.241200
O21	O2	0.977000	0.545700	0.128900
O31	O3	0.953100	0.678400	0.983400
O41	O4	0.811900	0.792390	0.972010
O51	O5	0.847460	0.502230	0.432450
O61	O6	0.912680	0.555850	0.484990
O71	O7	0.876100	0.743900	0.494500
O81	O8	0.772900	0.880800	0.457600
O91	O9	0.101400	0.007200	0.258800
O101	O10	0.151600	0.954300	0.371100
O111	O11	0.114900	0.821600	0.516600
O121	O12	0.076300	0.707610	0.527990
O131	O13	0.282140	0.997770	0.067550
O141	O14	0.453520	0.944150	0.015010
O151	O15	0.614500	0.756100	0.005500
O161	O16	0.611300	0.619200	0.042400
O171	O17	0.108600	0.758800	0.992800
O181	O18	0.105900	0.871100	0.045700
O191	O19	0.936500	0.016600	0.178400
O201	O20	0.783910	0.027990	0.292390
O211	O21	0.279910	0.567550	0.002230
O221	O22	0.397670	0.515010	0.055850
O231	O23	0.370600	0.505500	0.243900
O241	O24	0.230500	0.542400	0.380800
O251	O25	0.360200	0.741200	0.507200
O261	O26	0.522700	0.628900	0.454300
O271	O27	0.631500	0.483400	0.321600
O281	O28	0.604290	0.472010	0.207610
O291	O29	0.349690	0.932450	0.497770
O301	O30	0.468530	0.984990	0.444150
O311	O31	0.620000	0.994500	0.256100
O321	O32	0.653700	0.957600	0.119200
O331	O33	0.132600	0.507200	0.758800
O341	O34	0.023000	0.454300	0.871100
O351	O35	0.046900	0.321600	0.016600
O361	O36	0.188100	0.207610	0.027990
O371	O37	0.152540	0.497770	0.567550
O381	O38	0.087320	0.444150	0.515010
O391	O39	0.123900	0.256100	0.505500
O401	O40	0.227100	0.119200	0.542400
O411	O41	0.898600	0.992800	0.741200
O421	O42	0.848400	0.045700	0.628900
O431	O43	0.885100	0.178400	0.483400
O441	O44	0.923700	0.292390	0.472010
O451	O45	0.717860	0.002230	0.932450
O461	O46	0.546480	0.055850	0.984990
O471	O47	0.385500	0.243900	0.994500
O481	O48	0.388700	0.380800	0.957600
O491	O49	0.891400	0.241200	0.007200
O501	O50	0.894100	0.128900	0.954300
O511	O51	0.063500	0.983400	0.821600
O521	O52	0.216090	0.972010	0.707610
O531	O53	0.720090	0.432450	0.997770
O541	O54	0.602330	0.484990	0.944150
O551	O55	0.629400	0.494500	0.756100
O561	O56	0.769500	0.457600	0.619200
O571	O57	0.639800	0.258800	0.492800
O581	O58	0.477300	0.371100	0.545700
O591	O59	0.368500	0.516600	0.678400
O601	O60	0.395710	0.527990	0.792390
O611	O61	0.650310	0.067550	0.502230
O621	O62	0.531470	0.015010	0.555850
O631	O63	0.380000	0.005500	0.743900
O641	O64	0.346300	0.042400	0.880800
