data_WEMCOI_clean_PM
_symmetry_space_group_name_H-M	'P1'
_cell_length_a	16.157000
_cell_length_b	16.470800
_cell_length_c	16.470800
_cell_angle_alpha	76.080100
_cell_angle_beta	60.628300
_cell_angle_gamma	60.628300
_symmetry_Int_Tables_number 1

loop_
_symmetry_equiv_pos_as_xyz
'x,y,z'

loop_
_atom_site_label
_atom_site_type_symbol
_atom_site_fract_x
_atom_site_fract_y
_atom_site_fract_z
Gd11	Gd1	0.205160	0.532270	0.379140
Gd21	Gd2	0.012190	0.523710	0.113510
Gd31	Gd3	0.616570	0.967730	0.120860
Gd41	Gd4	0.149410	0.976290	0.386490
Gd51	Gd5	0.584300	0.620860	0.032270
Gd61	Gd6	0.125700	0.886490	0.023710
Gd71	Gd7	0.737430	0.879140	0.467730
Gd81	Gd8	0.535900	0.613510	0.476290
Gd91	Gd9	0.794840	0.467730	0.620860
Gd101	Gd10	0.987810	0.476290	0.886490
Gd111	Gd11	0.383430	0.032270	0.879140
Gd121	Gd12	0.850590	0.023710	0.613510
Gd131	Gd13	0.415700	0.379140	0.967730
Gd141	Gd14	0.874300	0.113510	0.976290
Gd151	Gd15	0.262570	0.120860	0.532270
Gd161	Gd16	0.464100	0.386490	0.523710
H11	H1	0.806400	0.752100	0.250700
H21	H2	0.082100	0.782700	0.399700
H31	H3	0.309200	0.747900	0.249300
H41	H4	0.764500	0.717300	0.100300
H51	H5	0.057100	0.749300	0.252100
H61	H6	0.481800	0.600300	0.282700
H71	H7	0.558500	0.750700	0.247900
H81	H8	0.864800	0.899700	0.217300
H91	H9	0.193600	0.247900	0.749300
H101	H10	0.917900	0.217300	0.600300
H111	H11	0.690800	0.252100	0.750700
H121	H12	0.235500	0.282700	0.899700
H131	H13	0.942900	0.250700	0.747900
H141	H14	0.518200	0.399700	0.717300
H151	H15	0.441500	0.249300	0.752100
H161	H16	0.135200	0.100300	0.782700
C11	C1	0.853300	0.716300	0.276700
C21	C2	0.985700	0.605500	0.297300
C31	C3	0.926700	0.670500	0.368500
C41	C4	0.079300	0.514700	0.276300
C51	C5	0.938300	0.678600	0.449000
C61	C6	0.138700	0.759500	0.414100
C71	C7	0.272000	0.662600	0.442600
C81	C8	0.251000	0.754000	0.451400
C91	C9	0.348700	0.569600	0.453400
C101	C10	0.305100	0.794500	0.469300
C111	C11	0.346300	0.783700	0.223300
C121	C12	0.388500	0.894500	0.202700
C131	C13	0.465700	0.829500	0.131500
C141	C14	0.370300	0.985300	0.223700
C151	C15	0.565900	0.821400	0.051000
C161	C16	0.812300	0.740500	0.085900
C171	C17	0.877200	0.837400	0.057400
C181	C18	0.956400	0.746000	0.048600
C191	C19	0.871700	0.930400	0.046600
C201	C20	0.068900	0.705500	0.030700
C211	C21	0.130000	0.723300	0.216300
C221	C22	0.283000	0.702700	0.105500
C231	C23	0.295200	0.631500	0.170500
C241	C24	0.355600	0.723700	0.014700
C251	C25	0.387300	0.551000	0.178600
C261	C26	0.552800	0.585900	0.259500
C271	C27	0.714600	0.557400	0.162600
C281	C28	0.702400	0.548600	0.254000
C291	C29	0.802100	0.546600	0.069600
C301	C30	0.774400	0.530700	0.294500
C311	C31	0.569600	0.776700	0.283700
C321	C32	0.591200	0.797300	0.394500
C331	C33	0.597200	0.868500	0.329500
C341	C34	0.594000	0.776300	0.485300
C351	C35	0.616900	0.949000	0.321400
C361	C36	0.898200	0.914100	0.240500
C371	C37	0.934600	0.942600	0.337400
C381	C38	0.005000	0.951400	0.246000
C391	C39	0.918300	0.953400	0.430400
C401	C40	0.099600	0.969300	0.205500
C411	C41	0.146700	0.283700	0.723300
C421	C42	0.014300	0.394500	0.702700
C431	C43	0.073300	0.329500	0.631500
C441	C44	0.920700	0.485300	0.723700
C451	C45	0.061700	0.321400	0.551000
C461	C46	0.861300	0.240500	0.585900
C471	C47	0.728000	0.337400	0.557400
C481	C48	0.749000	0.246000	0.548600
C491	C49	0.651300	0.430400	0.546600
C501	C50	0.694900	0.205500	0.530700
C511	C51	0.653700	0.216300	0.776700
C521	C52	0.611500	0.105500	0.797300
C531	C53	0.534300	0.170500	0.868500
C541	C54	0.629700	0.014700	0.776300
C551	C55	0.434100	0.178600	0.949000
C561	C56	0.187700	0.259500	0.914100
C571	C57	0.122800	0.162600	0.942600
C581	C58	0.043600	0.254000	0.951400
C591	C59	0.128300	0.069600	0.953400
C601	C60	0.931100	0.294500	0.969300
C611	C61	0.870000	0.276700	0.783700
C621	C62	0.717000	0.297300	0.894500
C631	C63	0.704800	0.368500	0.829500
C641	C64	0.644400	0.276300	0.985300
C651	C65	0.612700	0.449000	0.821400
C661	C66	0.447200	0.414100	0.740500
C671	C67	0.285400	0.442600	0.837400
C681	C68	0.297600	0.451400	0.746000
C691	C69	0.197900	0.453400	0.930400
C701	C70	0.225600	0.469300	0.705500
C711	C71	0.430400	0.223300	0.716300
C721	C72	0.408800	0.202700	0.605500
C731	C73	0.402800	0.131500	0.670500
C741	C74	0.406000	0.223700	0.514700
C751	C75	0.383100	0.051000	0.678600
C761	C76	0.101800	0.085900	0.759500
C771	C77	0.065400	0.057400	0.662600
C781	C78	0.995000	0.048600	0.754000
C791	C79	0.081700	0.046600	0.569600
C801	C80	0.900400	0.030700	0.794500
N11	N1	0.841600	0.741600	0.355000
N21	N2	0.937300	0.635900	0.239100
N31	N3	0.166800	0.814000	0.432200
N41	N4	0.199200	0.668300	0.418300
N51	N5	0.438200	0.758400	0.145000
N61	N6	0.312300	0.864100	0.260900
N71	N7	0.913000	0.686000	0.067800
N81	N8	0.785800	0.831700	0.081700
N91	N9	0.196600	0.645000	0.241600
N101	N10	0.176400	0.760900	0.135900
N111	N11	0.599000	0.567800	0.314000
N121	N12	0.617500	0.581700	0.168300
N131	N13	0.583200	0.855000	0.258400
N141	N14	0.573200	0.739100	0.364100
N151	N15	0.980800	0.932200	0.186000
N161	N16	0.867500	0.918300	0.331700
N171	N17	0.158400	0.258400	0.645000
N181	N18	0.062700	0.364100	0.760900
N191	N19	0.833200	0.186000	0.567800
N201	N20	0.800800	0.331700	0.581700
N211	N21	0.561800	0.241600	0.855000
N221	N22	0.687700	0.135900	0.739100
N231	N23	0.087000	0.314000	0.932200
N241	N24	0.214200	0.168300	0.918300
N251	N25	0.803400	0.355000	0.758400
N261	N26	0.823600	0.239100	0.864100
N271	N27	0.401000	0.432200	0.686000
N281	N28	0.382500	0.418300	0.831700
N291	N29	0.416800	0.145000	0.741600
N301	N30	0.426800	0.260900	0.635900
N311	N31	0.019200	0.067800	0.814000
N321	N32	0.132500	0.081700	0.668300
O11	O1	0.132200	0.482100	0.321500
O21	O2	0.104800	0.469700	0.207700
O31	O3	0.022600	0.627900	0.454500
O41	O4	0.859300	0.740600	0.508200
O51	O5	0.348200	0.501200	0.431200
O61	O6	0.412800	0.555400	0.485600
O71	O7	0.375700	0.744000	0.495000
O81	O8	0.272300	0.882100	0.457300
O91	O9	0.435800	0.017900	0.178500
O101	O10	0.282200	0.030300	0.292300
O111	O11	0.605000	0.872100	0.045500
O121	O12	0.608100	0.759400	0.991800
O131	O13	0.780600	0.998800	0.068800
O141	O14	0.953800	0.944600	0.014400
O151	O15	0.114700	0.756000	0.005000
O161	O16	0.111700	0.617900	0.042700
O171	O17	0.453700	0.678500	0.982100
O181	O18	0.312500	0.792300	0.969700
O191	O19	0.477100	0.545500	0.127900
O201	O20	0.367500	0.491800	0.240600
O211	O21	0.779400	0.568800	0.001200
O221	O22	0.898400	0.514400	0.055400
O231	O23	0.870700	0.505000	0.244000
O241	O24	0.729600	0.542700	0.382100
O251	O25	0.614300	0.821500	0.517900
O261	O26	0.574500	0.707700	0.530300
O271	O27	0.650500	0.954500	0.372100
O281	O28	0.599900	0.008200	0.259400
O291	O29	0.849400	0.931200	0.498800
O301	O30	0.968200	0.985600	0.444600
O311	O31	0.119700	0.995000	0.256000
O321	O32	0.154400	0.957300	0.117900
O331	O33	0.867800	0.517900	0.678500
O341	O34	0.895200	0.530300	0.792300
O351	O35	0.977400	0.372100	0.545500
O361	O36	0.140700	0.259400	0.491800
O371	O37	0.651800	0.498800	0.568800
O381	O38	0.587200	0.444600	0.514400
O391	O39	0.624300	0.256000	0.505000
O401	O40	0.727700	0.117900	0.542700
O411	O41	0.564200	0.982100	0.821500
O421	O42	0.717800	0.969700	0.707700
O431	O43	0.395000	0.127900	0.954500
O441	O44	0.391900	0.240600	0.008200
O451	O45	0.219400	0.001200	0.931200
O461	O46	0.046200	0.055400	0.985600
O471	O47	0.885300	0.244000	0.995000
O481	O48	0.888300	0.382100	0.957300
O491	O49	0.546300	0.321500	0.017900
O501	O50	0.687500	0.207700	0.030300
O511	O51	0.522900	0.454500	0.872100
O521	O52	0.632500	0.508200	0.759400
O531	O53	0.220600	0.431200	0.998800
O541	O54	0.101600	0.485600	0.944600
O551	O55	0.129300	0.495000	0.756000
O561	O56	0.270400	0.457300	0.617900
O571	O57	0.385700	0.178500	0.482100
O581	O58	0.425500	0.292300	0.469700
O591	O59	0.349500	0.045500	0.627900
O601	O60	0.400100	0.991800	0.740600
O611	O61	0.150600	0.068800	0.501200
O621	O62	0.031800	0.014400	0.555400
O631	O63	0.880300	0.005000	0.744000
O641	O64	0.845600	0.042700	0.882100
