data_WEMDAV_clean_PM
_symmetry_space_group_name_H-M	'P1'
_cell_length_a	16.001000
_cell_length_b	16.379600
_cell_length_c	16.379600
_cell_angle_alpha	76.197400
_cell_angle_beta	60.761700
_cell_angle_gamma	60.761700
_symmetry_Int_Tables_number 1

loop_
_symmetry_equiv_pos_as_xyz
'x,y,z'

loop_
_atom_site_label
_atom_site_type_symbol
_atom_site_fract_x
_atom_site_fract_y
_atom_site_fract_z
Dy11	Dy1	0.417650	0.379610	0.966190
Dy21	Dy2	0.875370	0.113090	0.975010
Dy31	Dy3	0.263450	0.120390	0.533810
Dy41	Dy4	0.463470	0.386910	0.524990
Dy51	Dy5	0.383840	0.033810	0.879610
Dy61	Dy6	0.850380	0.024990	0.613090
Dy71	Dy7	0.797260	0.466190	0.620390
Dy81	Dy8	0.988460	0.475010	0.886910
Dy91	Dy9	0.582350	0.620390	0.033810
Dy101	Dy10	0.124630	0.886910	0.024990
Dy111	Dy11	0.736550	0.879610	0.466190
Dy121	Dy12	0.536530	0.613090	0.475010
Dy131	Dy13	0.616160	0.966190	0.120390
Dy141	Dy14	0.149620	0.975010	0.386910
Dy151	Dy15	0.202740	0.533810	0.379610
Dy161	Dy16	0.011540	0.524990	0.113090
H11	H1	0.946200	0.248600	0.745200
H21	H2	0.519400	0.400400	0.716600
H31	H3	0.440000	0.251400	0.754800
H41	H4	0.136400	0.099600	0.783400
H51	H5	0.691400	0.254800	0.748600
H61	H6	0.236000	0.283400	0.900400
H71	H7	0.194800	0.245200	0.751400
H81	H8	0.919800	0.216600	0.599600
H91	H9	0.053800	0.751400	0.254800
H101	H10	0.480600	0.599600	0.283400
H111	H11	0.560000	0.748600	0.245200
H121	H12	0.863600	0.900400	0.216600
H131	H13	0.308600	0.745200	0.251400
H141	H14	0.764000	0.716600	0.099600
H151	H15	0.805200	0.754800	0.248600
H161	H16	0.080200	0.783400	0.400400
C11	C1	0.872800	0.275300	0.781900
C21	C2	0.719700	0.295800	0.893800
C31	C3	0.707500	0.367100	0.828100
C41	C4	0.645900	0.274800	0.985000
C51	C5	0.615600	0.447400	0.820000
C61	C6	0.447700	0.415100	0.740100
C71	C7	0.286100	0.444400	0.837000
C81	C8	0.298000	0.452600	0.745400
C91	C9	0.197300	0.454700	0.931100
C101	C10	0.225300	0.468700	0.706300
C111	C11	0.430000	0.224700	0.718100
C121	C12	0.409300	0.204200	0.606200
C131	C13	0.402700	0.132900	0.671900
C141	C14	0.405700	0.225200	0.515000
C151	C15	0.383000	0.052600	0.680000
C161	C16	0.102900	0.084900	0.759900
C171	C17	0.067500	0.055600	0.663000
C181	C18	0.996000	0.047400	0.754600
C191	C19	0.083100	0.045300	0.568900
C201	C20	0.900300	0.031300	0.793700
C211	C21	0.654700	0.218100	0.775300
C221	C22	0.613500	0.106200	0.795800
C231	C23	0.535600	0.171900	0.867100
C241	C24	0.630900	0.015000	0.774800
C251	C25	0.435600	0.180000	0.947400
C261	C26	0.187800	0.259900	0.915100
C271	C27	0.123100	0.163000	0.944400
C281	C28	0.043400	0.254600	0.952600
C291	C29	0.128400	0.068900	0.954700
C301	C30	0.931600	0.293700	0.968700
C311	C31	0.148100	0.281900	0.724700
C321	C32	0.015500	0.393800	0.704200
C331	C33	0.074600	0.328100	0.632900
C341	C34	0.920700	0.485000	0.725200
C351	C35	0.063000	0.320000	0.552600
C361	C36	0.862800	0.240100	0.584900
C371	C37	0.730500	0.337000	0.555600
C381	C38	0.750600	0.245400	0.547400
C391	C39	0.652000	0.431100	0.545300
C401	C40	0.694000	0.206300	0.531300
C411	C41	0.127200	0.724700	0.218100
C421	C42	0.280300	0.704200	0.106200
C431	C43	0.292500	0.632900	0.171900
C441	C44	0.354100	0.725200	0.015000
C451	C45	0.384400	0.552600	0.180000
C461	C46	0.552300	0.584900	0.259900
C471	C47	0.713900	0.555600	0.163000
C481	C48	0.702000	0.547400	0.254600
C491	C49	0.802700	0.545300	0.068900
C501	C50	0.774700	0.531300	0.293700
C511	C51	0.570000	0.775300	0.281900
C521	C52	0.590700	0.795800	0.393800
C531	C53	0.597300	0.867100	0.328100
C541	C54	0.594300	0.774800	0.485000
C551	C55	0.617000	0.947400	0.320000
C561	C56	0.897100	0.915100	0.240100
C571	C57	0.932500	0.944400	0.337000
C581	C58	0.004000	0.952600	0.245400
C591	C59	0.916900	0.954700	0.431100
C601	C60	0.099700	0.968700	0.206300
C611	C61	0.345300	0.781900	0.224700
C621	C62	0.386500	0.893800	0.204200
C631	C63	0.464400	0.828100	0.132900
C641	C64	0.369100	0.985000	0.225200
C651	C65	0.564400	0.820000	0.052600
C661	C66	0.812200	0.740100	0.084900
C671	C67	0.876900	0.837000	0.055600
C681	C68	0.956600	0.745400	0.047400
C691	C69	0.871600	0.931100	0.045300
C701	C70	0.068400	0.706300	0.031300
C711	C71	0.851900	0.718100	0.275300
C721	C72	0.984500	0.606200	0.295800
C731	C73	0.925400	0.671900	0.367100
C741	C74	0.079300	0.515000	0.274800
C751	C75	0.937000	0.680000	0.447400
C761	C76	0.137200	0.759900	0.415100
C771	C77	0.269500	0.663000	0.444400
C781	C78	0.249400	0.754600	0.452600
C791	C79	0.348000	0.568900	0.454700
C801	C80	0.306000	0.793700	0.468700
N11	N1	0.806400	0.353200	0.757200
N21	N2	0.825800	0.237800	0.864000
N31	N3	0.401900	0.433000	0.685600
N41	N4	0.383800	0.419600	0.831800
N51	N5	0.416800	0.146800	0.742800
N61	N6	0.427600	0.262200	0.636000
N71	N7	0.020500	0.067000	0.814400
N81	N8	0.135200	0.080400	0.668200
N91	N9	0.563600	0.242800	0.853200
N101	N10	0.689800	0.136000	0.737800
N111	N11	0.087500	0.314400	0.933000
N121	N12	0.215600	0.168200	0.919600
N131	N13	0.159600	0.257200	0.646800
N141	N14	0.063600	0.364000	0.762200
N151	N15	0.834900	0.185600	0.567000
N161	N16	0.803400	0.331800	0.580400
N171	N17	0.193600	0.646800	0.242800
N181	N18	0.174200	0.762200	0.136000
N191	N19	0.598100	0.567000	0.314400
N201	N20	0.616200	0.580400	0.168200
N211	N21	0.583200	0.853200	0.257200
N221	N22	0.572400	0.737800	0.364000
N231	N23	0.979500	0.933000	0.185600
N241	N24	0.864800	0.919600	0.331800
N251	N25	0.436400	0.757200	0.146800
N261	N26	0.310200	0.864000	0.262200
N271	N27	0.912500	0.685600	0.067000
N281	N28	0.784400	0.831800	0.080400
N291	N29	0.840400	0.742800	0.353200
N301	N30	0.936400	0.636000	0.237800
N311	N31	0.165100	0.814400	0.433000
N321	N32	0.196600	0.668200	0.419600
O11	O1	0.546800	0.320200	0.017400
O21	O2	0.690300	0.205900	0.028700
O31	O3	0.634200	0.507600	0.757000
O41	O4	0.523300	0.455700	0.871900
O51	O5	0.221600	0.432100	0.998700
O61	O6	0.101200	0.486900	0.945700
O71	O7	0.270600	0.456300	0.618300
O81	O8	0.128300	0.494000	0.756600
O91	O9	0.384400	0.179800	0.482600
O101	O10	0.424900	0.294100	0.471300
O111	O11	0.398800	0.992400	0.743000
O121	O12	0.350900	0.044300	0.628100
O131	O13	0.152400	0.067900	0.501300
O141	O14	0.033800	0.013100	0.554300
O151	O15	0.845200	0.043700	0.881700
O161	O16	0.878900	0.006000	0.743400
O171	O17	0.564200	0.982600	0.820200
O181	O18	0.719000	0.971300	0.705900
O191	O19	0.391200	0.243000	0.007600
O201	O20	0.395200	0.128100	0.955700
O211	O21	0.220300	0.001300	0.932100
O221	O22	0.046900	0.054300	0.986900
O231	O23	0.888900	0.381700	0.956300
O241	O24	0.884900	0.243400	0.994000
O251	O25	0.867000	0.517400	0.679800
O261	O26	0.896200	0.528700	0.794100
O271	O27	0.141800	0.257000	0.492400
O281	O28	0.979000	0.371900	0.544300
O291	O29	0.653700	0.498700	0.567900
O301	O30	0.588100	0.445700	0.513100
O311	O31	0.726900	0.118300	0.543700
O321	O32	0.622300	0.256600	0.506000
O331	O33	0.453200	0.679800	0.982600
O341	O34	0.309700	0.794100	0.971300
O351	O35	0.365800	0.492400	0.243000
O361	O36	0.476700	0.544300	0.128100
O371	O37	0.778400	0.567900	0.001300
O381	O38	0.898800	0.513100	0.054300
O391	O39	0.729400	0.543700	0.381700
O401	O40	0.871700	0.506000	0.243400
O411	O41	0.615600	0.820200	0.517400
O421	O42	0.575100	0.705900	0.528700
O431	O43	0.601200	0.007600	0.257000
O441	O44	0.649100	0.955700	0.371900
O451	O45	0.847600	0.932100	0.498700
O461	O46	0.966200	0.986900	0.445700
O471	O47	0.154800	0.956300	0.118300
O481	O48	0.121100	0.994000	0.256600
O491	O49	0.435800	0.017400	0.179800
O501	O50	0.281000	0.028700	0.294100
O511	O51	0.608800	0.757000	0.992400
O521	O52	0.604800	0.871900	0.044300
O531	O53	0.779700	0.998700	0.067900
O541	O54	0.953100	0.945700	0.013100
O551	O55	0.111100	0.618300	0.043700
O561	O56	0.115100	0.756600	0.006000
O571	O57	0.133000	0.482600	0.320200
O581	O58	0.103800	0.471300	0.205900
O591	O59	0.858200	0.743000	0.507600
O601	O60	0.021000	0.628100	0.455700
O611	O61	0.346300	0.501300	0.432100
O621	O62	0.411900	0.554300	0.486900
O631	O63	0.273100	0.881700	0.456300
O641	O64	0.377700	0.743400	0.494000
