data_WEMFAX_clean_PM
_symmetry_space_group_name_H-M	'P1'
_cell_length_a	9.659000
_cell_length_b	11.718000
_cell_length_c	12.281000
_cell_angle_alpha	90.000000
_cell_angle_beta	99.200000
_cell_angle_gamma	90.000000
_symmetry_Int_Tables_number 1

loop_
_symmetry_equiv_pos_as_xyz
'x,y,z'

loop_
_atom_site_label
_atom_site_type_symbol
_atom_site_fract_x
_atom_site_fract_y
_atom_site_fract_z
Gd11	Gd1	0.785950	0.485200	0.668650
Gd21	Gd2	0.714050	0.985200	0.831350
Gd31	Gd3	0.214050	0.514800	0.331350
Gd41	Gd4	0.285950	0.014800	0.168650
C11	C1	0.801400	0.210800	0.706200
C21	C2	0.700600	0.254600	0.783200
C31	C3	0.062900	0.499500	0.547500
C41	C4	0.494700	0.434000	0.500100
C51	C5	0.698600	0.710800	0.793800
C61	C6	0.799400	0.754600	0.716800
C71	C7	0.437100	0.999500	0.952500
C81	C8	0.005300	0.934000	0.999900
C91	C9	0.198600	0.789200	0.293800
C101	C10	0.299400	0.745400	0.216800
C111	C11	0.937100	0.500500	0.452500
C121	C12	0.505300	0.566000	0.499900
C131	C13	0.301400	0.289200	0.206200
C141	C14	0.200600	0.245400	0.283200
C151	C15	0.562900	0.000500	0.047500
C161	C16	0.994700	0.066000	0.000100
O11	O1	0.860300	0.285700	0.656100
O21	O2	0.817300	0.105300	0.701000
O31	O3	0.691600	0.360500	0.794000
O41	O4	0.634500	0.180900	0.827700
O51	O5	0.033400	0.487500	0.642900
O61	O6	0.181400	0.511800	0.522500
O71	O7	0.584500	0.382000	0.566300
O81	O8	0.398000	0.390000	0.434200
O91	O9	0.639700	0.785700	0.843900
O101	O10	0.682700	0.605300	0.799000
O111	O11	0.808400	0.860500	0.706000
O121	O12	0.865500	0.680900	0.672300
O131	O13	0.466600	0.987500	0.857100
O141	O14	0.318600	0.011800	0.977500
O151	O15	0.915500	0.882000	0.933700
O161	O16	0.102000	0.890000	0.065800
O171	O17	0.139700	0.714300	0.343900
O181	O18	0.182700	0.894700	0.299000
O191	O19	0.308400	0.639500	0.206000
O201	O20	0.365500	0.819100	0.172300
O211	O21	0.966600	0.512500	0.357100
O221	O22	0.818600	0.488200	0.477500
O231	O23	0.415500	0.618000	0.433700
O241	O24	0.602000	0.610000	0.565800
O251	O25	0.360300	0.214300	0.156100
O261	O26	0.317300	0.394700	0.201000
O271	O27	0.191600	0.139500	0.294000
O281	O28	0.134500	0.319100	0.327700
O291	O29	0.533400	0.012500	0.142900
O301	O30	0.681400	0.988200	0.022500
O311	O31	0.084500	0.118000	0.066300
O321	O32	0.898000	0.110000	0.934200
