data_WEMFOL_clean_PM
_symmetry_space_group_name_H-M	'P1'
_cell_length_a	9.620500
_cell_length_b	11.564000
_cell_length_c	12.229000
_cell_angle_alpha	90.000000
_cell_angle_beta	99.040000
_cell_angle_gamma	90.000000
_symmetry_Int_Tables_number 1

loop_
_symmetry_equiv_pos_as_xyz
'x,y,z'

loop_
_atom_site_label
_atom_site_type_symbol
_atom_site_fract_x
_atom_site_fract_y
_atom_site_fract_z
Ho11	Ho1	0.784980	0.512380	0.167150
Ho21	Ho2	0.715020	0.012380	0.332850
Ho31	Ho3	0.215020	0.487620	0.832850
Ho41	Ho4	0.284980	0.987620	0.667150
C11	C1	0.701000	0.742900	0.283000
C21	C2	0.504200	0.433800	0.998600
C31	C3	0.803300	0.786000	0.207700
C41	C4	0.062700	0.499900	0.047700
C51	C5	0.799000	0.242900	0.217000
C61	C6	0.995800	0.933800	0.501400
C71	C7	0.696700	0.286000	0.292300
C81	C8	0.437300	0.999900	0.452300
C91	C9	0.299000	0.257100	0.717000
C101	C10	0.495800	0.566200	0.001400
C111	C11	0.196700	0.214000	0.792300
C121	C12	0.937300	0.500100	0.952300
C131	C13	0.201000	0.757100	0.783000
C141	C14	0.004200	0.066200	0.498600
C151	C15	0.303300	0.714000	0.707700
C161	C16	0.562700	0.000100	0.547700
O11	O1	0.688700	0.635400	0.292500
O21	O2	0.635600	0.817900	0.329300
O31	O3	0.603000	0.387800	0.062700
O41	O4	0.412200	0.382100	0.932900
O51	O5	0.821300	0.893400	0.204500
O61	O6	0.861800	0.710800	0.156300
O71	O7	0.182100	0.488700	0.022100
O81	O8	0.032600	0.509300	0.143500
O91	O9	0.811300	0.135400	0.207500
O101	O10	0.864400	0.317900	0.170700
O111	O11	0.897000	0.887800	0.437300
O121	O12	0.087800	0.882100	0.567100
O131	O13	0.678700	0.393400	0.295500
O141	O14	0.638200	0.210800	0.343700
O151	O15	0.317900	0.988700	0.477900
O161	O16	0.467400	0.009300	0.356500
O171	O17	0.311300	0.364600	0.707500
O181	O18	0.364400	0.182100	0.670700
O191	O19	0.397000	0.612200	0.937300
O201	O20	0.587800	0.617900	0.067100
O211	O21	0.178700	0.106600	0.795500
O221	O22	0.138200	0.289200	0.843700
O231	O23	0.817900	0.511300	0.977900
O241	O24	0.967400	0.490700	0.856500
O251	O25	0.188700	0.864600	0.792500
O261	O26	0.135600	0.682100	0.829300
O271	O27	0.103000	0.112200	0.562700
O281	O28	0.912200	0.117900	0.432900
O291	O29	0.321300	0.606600	0.704500
O301	O30	0.361800	0.789200	0.656300
O311	O31	0.682100	0.011300	0.522100
O321	O32	0.532600	0.990700	0.643500
