data_WEMNEJ_clean_PM
_symmetry_space_group_name_H-M	'P1'
_cell_length_a	16.308000
_cell_length_b	10.517000
_cell_length_c	22.986000
_cell_angle_alpha	90.000000
_cell_angle_beta	104.444000
_cell_angle_gamma	90.000000
_symmetry_Int_Tables_number 1

loop_
_symmetry_equiv_pos_as_xyz
'x,y,z'

loop_
_atom_site_label
_atom_site_type_symbol
_atom_site_fract_x
_atom_site_fract_y
_atom_site_fract_z
Zn11	Zn1	0.785950	0.175710	0.748100
Zn21	Zn2	0.880920	0.672510	0.751140
Zn31	Zn3	0.449810	0.168570	0.755360
S11	S1	0.711380	0.474450	0.712310
C11	C1	0.579600	0.051500	0.502200
C21	C2	0.567300	0.919000	0.498300
C31	C3	0.486700	0.870200	0.497100
C41	C4	0.665000	0.105300	0.501300
H11	H1	0.691700	0.050400	0.477400
H21	H2	0.657500	0.188400	0.482300
C51	C5	0.703900	0.131800	0.615300
H31	H3	0.649500	0.129700	0.621300
C61	C6	0.833500	0.148900	0.628200
H41	H4	0.890300	0.161600	0.647300
C71	C7	0.640100	0.834400	0.494100
H51	H5	0.692800	0.871400	0.516900
H61	H6	0.633700	0.751900	0.511300
C81	C8	0.586000	0.829400	0.381400
H71	H7	0.529400	0.845800	0.379600
C91	C9	0.472400	0.725900	0.495000
H81	H8	0.416200	0.707200	0.470300
H91	H9	0.513300	0.685500	0.476700
C101	C10	0.509900	0.724800	0.609000
H101	H10	0.531000	0.807200	0.615500
C111	C11	0.473800	0.541500	0.619900
H111	H11	0.463900	0.466400	0.638400
C121	C12	0.002900	0.632600	0.499800
C131	C13	0.927100	0.571200	0.500900
C141	C14	0.923900	0.436900	0.500600
C151	C15	0.004100	0.780000	0.499100
H121	H12	0.973400	0.812300	0.527100
H131	H13	0.062100	0.809800	0.512000
C161	C16	0.952300	0.777700	0.386700
H141	H14	0.965000	0.693600	0.380000
C171	C17	0.914100	0.964200	0.375500
H151	H15	0.894200	0.041100	0.357400
C181	C18	0.850200	0.646700	0.505100
H161	H16	0.843600	0.718400	0.477800
H171	H17	0.800200	0.593600	0.492700
C191	C19	0.856800	0.631400	0.615200
H181	H18	0.851600	0.543600	0.617600
C201	C20	0.866800	0.824100	0.634900
H191	H19	0.871200	0.900300	0.656000
C211	C21	0.842100	0.370200	0.494900
H201	H20	0.851400	0.291400	0.517600
H211	H21	0.804100	0.423000	0.511000
C221	C22	0.831800	0.359100	0.383700
H221	H22	0.883800	0.395200	0.383600
C231	C23	0.713000	0.278000	0.358500
H231	H23	0.663500	0.242800	0.334900
N11	N1	0.771700	0.149500	0.657500
N21	N2	0.721400	0.117200	0.562900
N31	N3	0.806700	0.128800	0.570400
N41	N4	0.505400	0.646500	0.651300
N51	N5	0.481100	0.674200	0.555400
N61	N6	0.458100	0.552900	0.561900
N71	N7	0.918900	0.858200	0.344000
N81	N8	0.965500	0.828800	0.439000
N91	N9	0.939200	0.950800	0.433100
N101	N10	0.865100	0.708900	0.660900
N111	N11	0.856600	0.693000	0.565900
N121	N12	0.861800	0.818200	0.577700
N131	N13	0.777500	0.318300	0.335800
N141	N14	0.804300	0.343100	0.431600
N151	N15	0.726400	0.293000	0.415800
O11	O1	0.704600	0.342200	0.730700
O21	O2	0.657200	0.552800	0.739800
O31	O3	0.801200	0.512600	0.736900
O41	O4	0.686600	0.487200	0.648800
N161	N16	0.643000	0.818800	0.431700
N171	N17	0.717900	0.849000	0.418200
C241	C24	0.700800	0.840000	0.360000
H241	H24	0.740700	0.849300	0.337600
N181	N18	0.613500	0.815800	0.335000
C251	C25	0.671200	0.706000	0.360600
H251	H25	0.692000	0.646300	0.338200
N191	N19	0.687800	0.708000	0.420000
Zn41	Zn4	0.214050	0.675710	0.751900
Zn51	Zn5	0.119080	0.172510	0.748860
Zn61	Zn6	0.550190	0.668570	0.744640
S21	S2	0.288620	0.974450	0.787690
C261	C26	0.420400	0.551500	0.997800
C271	C27	0.432700	0.419000	0.001700
C281	C28	0.513300	0.370200	0.002900
C291	C29	0.335000	0.605300	0.998700
H261	H26	0.308300	0.550400	0.022600
H271	H27	0.342500	0.688400	0.017700
C301	C30	0.296100	0.631800	0.884700
H281	H28	0.350500	0.629700	0.878700
C311	C31	0.166500	0.648900	0.871800
H291	H29	0.109700	0.661600	0.852700
C321	C32	0.359900	0.334400	0.005900
H301	H30	0.307200	0.371400	0.983100
H311	H31	0.366300	0.251900	0.988700
C331	C33	0.414000	0.329400	0.118600
H321	H32	0.470600	0.345800	0.120400
C341	C34	0.527600	0.225900	0.005000
H331	H33	0.583800	0.207200	0.029700
H341	H34	0.486700	0.185500	0.023300
C351	C35	0.490100	0.224800	0.891000
H351	H35	0.469000	0.307200	0.884500
C361	C36	0.526200	0.041500	0.880100
H361	H36	0.536100	0.966400	0.861600
C371	C37	0.997100	0.132600	0.000200
C381	C38	0.072900	0.071200	0.999100
C391	C39	0.076100	0.936900	0.999400
C401	C40	0.995900	0.280000	0.000900
H371	H37	0.026600	0.312300	0.972900
H381	H38	0.937900	0.309800	0.988000
C411	C41	0.047700	0.277700	0.113300
H391	H39	0.035000	0.193600	0.120000
C421	C42	0.085900	0.464200	0.124500
H401	H40	0.105800	0.541100	0.142600
C431	C43	0.149800	0.146700	0.994900
H411	H41	0.156400	0.218400	0.022200
H421	H42	0.199800	0.093600	0.007300
C441	C44	0.143200	0.131400	0.884800
H431	H43	0.148400	0.043600	0.882400
C451	C45	0.133200	0.324100	0.865100
H441	H44	0.128800	0.400300	0.844000
C461	C46	0.157900	0.870200	0.005100
H451	H45	0.148600	0.791400	0.982400
H461	H46	0.195900	0.923000	0.989000
C471	C47	0.168200	0.859100	0.116300
H471	H47	0.116200	0.895200	0.116400
C481	C48	0.287000	0.778000	0.141500
H481	H48	0.336500	0.742800	0.165100
N201	N20	0.228300	0.649500	0.842500
N211	N21	0.278600	0.617200	0.937100
N221	N22	0.193300	0.628800	0.929600
N231	N23	0.494600	0.146500	0.848700
N241	N24	0.518900	0.174200	0.944600
N251	N25	0.541900	0.052900	0.938100
N261	N26	0.081100	0.358200	0.156000
N271	N27	0.034500	0.328800	0.061000
N281	N28	0.060800	0.450800	0.066900
N291	N29	0.134900	0.208900	0.839100
N301	N30	0.143400	0.193000	0.934100
N311	N31	0.138200	0.318200	0.922300
N321	N32	0.222500	0.818300	0.164200
N331	N33	0.195700	0.843100	0.068400
N341	N34	0.273600	0.793000	0.084200
O51	O5	0.295400	0.842200	0.769300
O61	O6	0.342800	0.052800	0.760200
O71	O7	0.198800	0.012600	0.763100
O81	O8	0.313400	0.987200	0.851200
N351	N35	0.357000	0.318800	0.068300
N361	N36	0.282100	0.349000	0.081800
C491	C49	0.299200	0.340000	0.140000
H491	H49	0.259300	0.349300	0.162400
N371	N37	0.386500	0.315800	0.165000
C501	C50	0.328800	0.206000	0.139400
H501	H50	0.308000	0.146300	0.161800
N381	N38	0.312200	0.208000	0.080000
Zn71	Zn7	0.214050	0.824290	0.251900
Zn81	Zn8	0.119080	0.327490	0.248860
Zn91	Zn9	0.550190	0.831430	0.244640
S31	S3	0.288620	0.525550	0.287690
C511	C51	0.420400	0.948500	0.497800
C521	C52	0.432700	0.081000	0.501700
C531	C53	0.513300	0.129800	0.502900
C541	C54	0.335000	0.894700	0.498700
H511	H51	0.308300	0.949600	0.522600
H521	H52	0.342500	0.811600	0.517700
C551	C55	0.296100	0.868200	0.384700
H531	H53	0.350500	0.870300	0.378700
C561	C56	0.166500	0.851100	0.371800
H541	H54	0.109700	0.838400	0.352700
C571	C57	0.359900	0.165600	0.505900
H551	H55	0.307200	0.128600	0.483100
H561	H56	0.366300	0.248100	0.488700
C581	C58	0.414000	0.170600	0.618600
H571	H57	0.470600	0.154200	0.620400
C591	C59	0.527600	0.274100	0.505000
H581	H58	0.583800	0.292800	0.529700
H591	H59	0.486700	0.314500	0.523300
C601	C60	0.490100	0.275200	0.391000
H601	H60	0.469000	0.192800	0.384500
C611	C61	0.526200	0.458500	0.380100
H611	H61	0.536100	0.533600	0.361600
C621	C62	0.997100	0.367400	0.500200
C631	C63	0.072900	0.428800	0.499100
C641	C64	0.076100	0.563100	0.499400
C651	C65	0.995900	0.220000	0.500900
H621	H62	0.026600	0.187700	0.472900
H631	H63	0.937900	0.190200	0.488000
C661	C66	0.047700	0.222300	0.613300
H641	H64	0.035000	0.306400	0.620000
C671	C67	0.085900	0.035800	0.624500
H651	H65	0.105800	0.958900	0.642600
C681	C68	0.149800	0.353300	0.494900
H661	H66	0.156400	0.281600	0.522200
H671	H67	0.199800	0.406400	0.507300
C691	C69	0.143200	0.368600	0.384800
H681	H68	0.148400	0.456400	0.382400
C701	C70	0.133200	0.175900	0.365100
H691	H69	0.128800	0.099700	0.344000
C711	C71	0.157900	0.629800	0.505100
H701	H70	0.148600	0.708600	0.482400
H711	H71	0.195900	0.577000	0.489000
C721	C72	0.168200	0.640900	0.616300
H721	H72	0.116200	0.604800	0.616400
C731	C73	0.287000	0.722000	0.641500
H731	H73	0.336500	0.757200	0.665100
N391	N39	0.228300	0.850500	0.342500
N401	N40	0.278600	0.882800	0.437100
N411	N41	0.193300	0.871200	0.429600
N421	N42	0.494600	0.353500	0.348700
N431	N43	0.518900	0.325800	0.444600
N441	N44	0.541900	0.447100	0.438100
N451	N45	0.081100	0.141800	0.656000
N461	N46	0.034500	0.171200	0.561000
N471	N47	0.060800	0.049200	0.566900
N481	N48	0.134900	0.291100	0.339100
N491	N49	0.143400	0.307000	0.434100
N501	N50	0.138200	0.181800	0.422300
N511	N51	0.222500	0.681700	0.664200
N521	N52	0.195700	0.656900	0.568400
N531	N53	0.273600	0.707000	0.584200
O91	O9	0.295400	0.657800	0.269300
O101	O10	0.342800	0.447200	0.260200
O111	O11	0.198800	0.487400	0.263100
O121	O12	0.313400	0.512800	0.351200
N541	N54	0.357000	0.181200	0.568300
N551	N55	0.282100	0.151000	0.581800
C741	C74	0.299200	0.160000	0.640000
H741	H74	0.259300	0.150700	0.662400
N561	N56	0.386500	0.184200	0.665000
C751	C75	0.328800	0.294000	0.639400
H751	H75	0.308000	0.353700	0.661800
N571	N57	0.312200	0.292000	0.580000
Zn101	Zn10	0.785950	0.324290	0.248100
Zn111	Zn11	0.880920	0.827490	0.251140
Zn121	Zn12	0.449810	0.331430	0.255360
S41	S4	0.711380	0.025550	0.212310
C761	C76	0.579600	0.448500	0.002200
C771	C77	0.567300	0.581000	0.998300
C781	C78	0.486700	0.629800	0.997100
C791	C79	0.665000	0.394700	0.001300
H761	H76	0.691700	0.449600	0.977400
H771	H77	0.657500	0.311600	0.982300
C801	C80	0.703900	0.368200	0.115300
H781	H78	0.649500	0.370300	0.121300
C811	C81	0.833500	0.351100	0.128200
H791	H79	0.890300	0.338400	0.147300
C821	C82	0.640100	0.665600	0.994100
H801	H80	0.692800	0.628600	0.016900
H811	H81	0.633700	0.748100	0.011300
C831	C83	0.586000	0.670600	0.881400
H821	H82	0.529400	0.654200	0.879600
C841	C84	0.472400	0.774100	0.995000
H831	H83	0.416200	0.792800	0.970300
H841	H84	0.513300	0.814500	0.976700
C851	C85	0.509900	0.775200	0.109000
H851	H85	0.531000	0.692800	0.115500
C861	C86	0.473800	0.958500	0.119900
H861	H86	0.463900	0.033600	0.138400
C871	C87	0.002900	0.867400	0.999800
C881	C88	0.927100	0.928800	0.000900
C891	C89	0.923900	0.063100	0.000600
C901	C90	0.004100	0.720000	0.999100
H871	H87	0.973400	0.687700	0.027100
H881	H88	0.062100	0.690200	0.012000
C911	C91	0.952300	0.722300	0.886700
H891	H89	0.965000	0.806400	0.880000
C921	C92	0.914100	0.535800	0.875500
H901	H90	0.894200	0.458900	0.857400
C931	C93	0.850200	0.853300	0.005100
H911	H91	0.843600	0.781600	0.977800
H921	H92	0.800200	0.906400	0.992700
C941	C94	0.856800	0.868600	0.115200
H931	H93	0.851600	0.956400	0.117600
C951	C95	0.866800	0.675900	0.134900
H941	H94	0.871200	0.599700	0.156000
C961	C96	0.842100	0.129800	0.994900
H951	H95	0.851400	0.208600	0.017600
H961	H96	0.804100	0.077000	0.011000
C971	C97	0.831800	0.140900	0.883700
H971	H97	0.883800	0.104800	0.883600
C981	C98	0.713000	0.222000	0.858500
H981	H98	0.663500	0.257200	0.834900
N581	N58	0.771700	0.350500	0.157500
N591	N59	0.721400	0.382800	0.062900
N601	N60	0.806700	0.371200	0.070400
N611	N61	0.505400	0.853500	0.151300
N621	N62	0.481100	0.825800	0.055400
N631	N63	0.458100	0.947100	0.061900
N641	N64	0.918900	0.641800	0.844000
N651	N65	0.965500	0.671200	0.939000
N661	N66	0.939200	0.549200	0.933100
N671	N67	0.865100	0.791100	0.160900
N681	N68	0.856600	0.807000	0.065900
N691	N69	0.861800	0.681800	0.077700
N701	N70	0.777500	0.181700	0.835800
N711	N71	0.804300	0.156900	0.931600
N721	N72	0.726400	0.207000	0.915800
O131	O13	0.704600	0.157800	0.230700
O141	O14	0.657200	0.947200	0.239800
O151	O15	0.801200	0.987400	0.236900
O161	O16	0.686600	0.012800	0.148800
N731	N73	0.643000	0.681200	0.931700
N741	N74	0.717900	0.651000	0.918200
C991	C99	0.700800	0.660000	0.860000
H991	H99	0.740700	0.650700	0.837600
N751	N75	0.613500	0.684200	0.835000
C1001	C100	0.671200	0.794000	0.860600
H1001	H100	0.692000	0.853700	0.838200
N761	N76	0.687800	0.792000	0.920000
