data_WEMYEU_clean_PM
_symmetry_space_group_name_H-M	'P1'
_cell_length_a	11.207300
_cell_length_b	28.646700
_cell_length_c	21.996000
_cell_angle_alpha	90.000000
_cell_angle_beta	117.764000
_cell_angle_gamma	90.000000
_symmetry_Int_Tables_number 1

loop_
_symmetry_equiv_pos_as_xyz
'x,y,z'

loop_
_atom_site_label
_atom_site_type_symbol
_atom_site_fract_x
_atom_site_fract_y
_atom_site_fract_z
Cu11	Cu1	0.497160	0.251320	0.299100
Cu21	Cu2	0.505640	0.367380	0.280220
O11	O1	0.108300	0.058600	0.022900
O21	O2	0.960100	0.109200	0.024600
O31	O3	0.177900	0.263700	0.056800
O41	O4	0.393700	0.267380	0.187800
O51	O5	0.410300	0.344570	0.174600
O61	O6	0.540900	0.313040	0.338700
N11	N1	0.007900	0.998100	0.091800
N21	N2	0.000400	0.996300	0.410100
N31	N3	0.481300	0.180900	0.284800
N41	N4	0.506400	0.936900	0.240900
N51	N5	0.318800	0.250500	0.303800
N61	N6	0.683800	0.246400	0.304700
N71	N7	0.323900	0.373300	0.281200
N81	N8	0.691700	0.366600	0.283000
C11	C1	0.068700	0.098600	0.025400
C21	C2	0.165300	0.139000	0.034100
C31	C3	0.288800	0.129600	0.031800
H11	H1	0.310400	0.099200	0.025800
C41	C4	0.376700	0.166300	0.038500
C51	C5	0.338700	0.211400	0.047600
H21	H2	0.396700	0.236000	0.052900
C61	C6	0.223800	0.220500	0.049100
C71	C7	0.134900	0.184100	0.041900
H31	H3	0.054100	0.190600	0.042400
C81	C8	0.508000	0.156000	0.037700
H41	H4	0.579400	0.154300	0.084100
H51	H5	0.527100	0.180400	0.013600
H61	H6	0.501100	0.126800	0.015000
C91	C9	0.270100	0.302600	0.075500
H71	H7	0.219100	0.331500	0.061900
H81	H8	0.322700	0.300300	0.050900
C101	C10	0.366600	0.303800	0.153800
C111	C11	0.895300	0.987700	0.096600
H91	H9	0.816800	0.980300	0.057000
C121	C12	0.893700	0.987800	0.158600
H101	H10	0.813800	0.981200	0.160000
C131	C13	0.008100	0.997400	0.218600
C141	C14	0.125800	0.007700	0.214000
H111	H11	0.205900	0.014300	0.253300
C151	C15	0.120800	0.008000	0.150100
H121	H12	0.198800	0.015300	0.147100
C161	C16	0.892500	0.009400	0.352200
H131	H13	0.814200	0.017900	0.354100
C171	C17	0.893700	0.010700	0.289700
H141	H14	0.818200	0.021200	0.250700
C181	C18	0.006100	0.996700	0.285100
C191	C19	0.118800	0.981300	0.345600
H151	H15	0.197300	0.971700	0.344800
C201	C20	0.109000	0.981000	0.406200
H161	H16	0.181500	0.969700	0.445800
C211	C21	0.417100	0.161500	0.222800
H171	H17	0.370300	0.180900	0.185100
C221	C22	0.416600	0.112900	0.211600
H181	H18	0.369300	0.100200	0.167800
C231	C23	0.490400	0.084500	0.269100
C241	C24	0.553300	0.104300	0.333400
H191	H19	0.599400	0.085900	0.372300
C251	C25	0.546300	0.153200	0.339200
H201	H20	0.588600	0.166600	0.382700
C261	C26	0.505500	0.954300	0.296300
H211	H21	0.507900	0.933600	0.329500
C271	C27	0.501000	0.001500	0.307400
H221	H22	0.502200	0.011900	0.347700
C281	C28	0.494900	0.033300	0.259200
C291	C29	0.497900	0.015800	0.201500
H231	H23	0.495600	0.036000	0.167900
C301	C30	0.504300	0.967400	0.193400
H241	H24	0.507200	0.956000	0.154500
C311	C31	0.199600	0.253300	0.246100
H251	H25	0.200800	0.256100	0.204200
C321	C32	0.077300	0.252300	0.245600
H261	H26	0.998800	0.255200	0.204100
C331	C33	0.069200	0.247100	0.304900
C341	C34	0.191800	0.243600	0.366400
H271	H27	0.192500	0.239800	0.408600
C351	C35	0.312500	0.246000	0.361900
H281	H28	0.393200	0.244400	0.402500
C361	C36	0.693600	0.238600	0.245500
H291	H29	0.615800	0.233600	0.204300
C371	C37	0.815800	0.238100	0.246700
H301	H30	0.820000	0.232700	0.206000
C381	C38	0.933100	0.245500	0.305900
C391	C39	0.923900	0.253700	0.365500
H311	H31	0.001100	0.259700	0.406500
C401	C40	0.799900	0.253000	0.363600
H321	H32	0.795400	0.257300	0.404400
C411	C41	0.210300	0.380600	0.223500
H331	H33	0.215600	0.386000	0.183100
C421	C42	0.084200	0.380600	0.221000
H341	H34	0.007000	0.385400	0.179500
C431	C43	0.074100	0.373500	0.281200
C441	C44	0.195100	0.367100	0.342200
H351	H35	0.193800	0.363200	0.383800
C451	C45	0.316800	0.366800	0.339600
H361	H36	0.396200	0.361900	0.380000
C461	C46	0.701500	0.358100	0.225200
H371	H37	0.623500	0.350800	0.185200
C471	C47	0.824400	0.359700	0.223000
H381	H38	0.828600	0.352600	0.182800
C481	C48	0.940700	0.372200	0.282600
C491	C49	0.928700	0.381400	0.340700
H391	H39	0.004500	0.388800	0.381600
C501	C50	0.801700	0.379400	0.338000
H401	H40	0.794600	0.387600	0.377100
Cu31	Cu3	0.502840	0.751320	0.200900
Cu41	Cu4	0.494360	0.867380	0.219780
O71	O7	0.891700	0.558600	0.477100
O81	O8	0.039900	0.609200	0.475400
O91	O9	0.822100	0.763700	0.443200
O101	O10	0.606300	0.767380	0.312200
O111	O11	0.589700	0.844570	0.325400
O121	O12	0.459100	0.813040	0.161300
N91	N9	0.992100	0.498100	0.408200
N101	N10	0.999600	0.496300	0.089900
N111	N11	0.518700	0.680900	0.215200
N121	N12	0.493600	0.436900	0.259100
N131	N13	0.681200	0.750500	0.196200
N141	N14	0.316200	0.746400	0.195300
N151	N15	0.676100	0.873300	0.218800
N161	N16	0.308300	0.866600	0.217000
C511	C51	0.931300	0.598600	0.474600
C521	C52	0.834700	0.639000	0.465900
C531	C53	0.711200	0.629600	0.468200
H411	H41	0.689600	0.599200	0.474200
C541	C54	0.623300	0.666300	0.461500
C551	C55	0.661300	0.711400	0.452400
H421	H42	0.603300	0.736000	0.447100
C561	C56	0.776200	0.720500	0.450900
C571	C57	0.865100	0.684100	0.458100
H431	H43	0.945900	0.690600	0.457600
C581	C58	0.492000	0.656000	0.462300
H441	H44	0.420600	0.654300	0.415900
H451	H45	0.472900	0.680400	0.486400
H461	H46	0.498900	0.626800	0.485000
C591	C59	0.729900	0.802600	0.424500
H471	H47	0.780900	0.831500	0.438100
H481	H48	0.677300	0.800300	0.449100
C601	C60	0.633400	0.803800	0.346200
C611	C61	0.104700	0.487700	0.403400
H491	H49	0.183200	0.480300	0.443000
C621	C62	0.106300	0.487800	0.341400
H501	H50	0.186200	0.481200	0.340000
C631	C63	0.991900	0.497400	0.281400
C641	C64	0.874200	0.507700	0.286000
H511	H51	0.794100	0.514300	0.246700
C651	C65	0.879200	0.508000	0.349900
H521	H52	0.801200	0.515300	0.352900
C661	C66	0.107500	0.509400	0.147800
H531	H53	0.185800	0.517900	0.145900
C671	C67	0.106300	0.510700	0.210300
H541	H54	0.181800	0.521200	0.249300
C681	C68	0.993900	0.496700	0.214900
C691	C69	0.881200	0.481300	0.154400
H551	H55	0.802700	0.471700	0.155200
C701	C70	0.891000	0.481000	0.093800
H561	H56	0.818500	0.469700	0.054200
C711	C71	0.582900	0.661500	0.277200
H571	H57	0.629700	0.680900	0.314900
C721	C72	0.583400	0.612900	0.288400
H581	H58	0.630700	0.600200	0.332200
C731	C73	0.509600	0.584500	0.230900
C741	C74	0.446700	0.604300	0.166600
H591	H59	0.400600	0.585900	0.127700
C751	C75	0.453700	0.653200	0.160800
H601	H60	0.411400	0.666600	0.117300
C761	C76	0.494500	0.454300	0.203700
H611	H61	0.492100	0.433600	0.170500
C771	C77	0.499000	0.501500	0.192600
H621	H62	0.497800	0.511900	0.152300
C781	C78	0.505100	0.533300	0.240800
C791	C79	0.502100	0.515800	0.298500
H631	H63	0.504400	0.536000	0.332100
C801	C80	0.495700	0.467400	0.306600
H641	H64	0.492800	0.456000	0.345500
C811	C81	0.800400	0.753300	0.253900
H651	H65	0.799200	0.756100	0.295800
C821	C82	0.922700	0.752300	0.254400
H661	H66	0.001200	0.755200	0.295900
C831	C83	0.930800	0.747100	0.195100
C841	C84	0.808200	0.743600	0.133600
H671	H67	0.807500	0.739800	0.091400
C851	C85	0.687500	0.746000	0.138100
H681	H68	0.606800	0.744400	0.097500
C861	C86	0.306400	0.738600	0.254500
H691	H69	0.384200	0.733600	0.295700
C871	C87	0.184200	0.738100	0.253300
H701	H70	0.180000	0.732700	0.294000
C881	C88	0.066900	0.745500	0.194100
C891	C89	0.076100	0.753700	0.134500
H711	H71	0.998900	0.759700	0.093500
C901	C90	0.200100	0.753000	0.136400
H721	H72	0.204600	0.757300	0.095600
C911	C91	0.789700	0.880600	0.276500
H731	H73	0.784400	0.886000	0.316900
C921	C92	0.915800	0.880600	0.279000
H741	H74	0.993000	0.885400	0.320500
C931	C93	0.925900	0.873500	0.218800
C941	C94	0.804900	0.867100	0.157800
H751	H75	0.806200	0.863200	0.116200
C951	C95	0.683200	0.866800	0.160400
H761	H76	0.603800	0.861900	0.120000
C961	C96	0.298500	0.858100	0.274800
H771	H77	0.376500	0.850800	0.314800
C971	C97	0.175600	0.859700	0.277000
H781	H78	0.171400	0.852600	0.317200
C981	C98	0.059300	0.872200	0.217400
C991	C99	0.071300	0.881400	0.159300
H791	H79	0.995500	0.888800	0.118400
C1001	C100	0.198300	0.879400	0.162000
H801	H80	0.205400	0.887600	0.122900
Cu51	Cu5	0.502840	0.748680	0.700900
Cu61	Cu6	0.494360	0.632620	0.719780
O131	O13	0.891700	0.941400	0.977100
O141	O14	0.039900	0.890800	0.975400
O151	O15	0.822100	0.736300	0.943200
O161	O16	0.606300	0.732620	0.812200
O171	O17	0.589700	0.655430	0.825400
O181	O18	0.459100	0.686960	0.661300
N171	N17	0.992100	0.001900	0.908200
N181	N18	0.999600	0.003700	0.589900
N191	N19	0.518700	0.819100	0.715200
N201	N20	0.493600	0.063100	0.759100
N211	N21	0.681200	0.749500	0.696200
N221	N22	0.316200	0.753600	0.695300
N231	N23	0.676100	0.626700	0.718800
N241	N24	0.308300	0.633400	0.717000
C1011	C101	0.931300	0.901400	0.974600
C1021	C102	0.834700	0.861000	0.965900
C1031	C103	0.711200	0.870400	0.968200
H811	H81	0.689600	0.900800	0.974200
C1041	C104	0.623300	0.833700	0.961500
C1051	C105	0.661300	0.788600	0.952400
H821	H82	0.603300	0.764000	0.947100
C1061	C106	0.776200	0.779500	0.950900
C1071	C107	0.865100	0.815900	0.958100
H831	H83	0.945900	0.809400	0.957600
C1081	C108	0.492000	0.844000	0.962300
H841	H84	0.420600	0.845700	0.915900
H851	H85	0.472900	0.819600	0.986400
H861	H86	0.498900	0.873200	0.985000
C1091	C109	0.729900	0.697400	0.924500
H871	H87	0.780900	0.668500	0.938100
H881	H88	0.677300	0.699700	0.949100
C1101	C110	0.633400	0.696200	0.846200
C1111	C111	0.104700	0.012300	0.903400
H891	H89	0.183200	0.019700	0.943000
C1121	C112	0.106300	0.012200	0.841400
H901	H90	0.186200	0.018800	0.840000
C1131	C113	0.991900	0.002600	0.781400
C1141	C114	0.874200	0.992300	0.786000
H911	H91	0.794100	0.985700	0.746700
C1151	C115	0.879200	0.992000	0.849900
H921	H92	0.801200	0.984700	0.852900
C1161	C116	0.107500	0.990600	0.647800
H931	H93	0.185800	0.982100	0.645900
C1171	C117	0.106300	0.989300	0.710300
H941	H94	0.181800	0.978800	0.749300
C1181	C118	0.993900	0.003300	0.714900
C1191	C119	0.881200	0.018700	0.654400
H951	H95	0.802700	0.028300	0.655200
C1201	C120	0.891000	0.019000	0.593800
H961	H96	0.818500	0.030300	0.554200
C1211	C121	0.582900	0.838500	0.777200
H971	H97	0.629700	0.819100	0.814900
C1221	C122	0.583400	0.887100	0.788400
H981	H98	0.630700	0.899800	0.832200
C1231	C123	0.509600	0.915500	0.730900
C1241	C124	0.446700	0.895700	0.666600
H991	H99	0.400600	0.914100	0.627700
C1251	C125	0.453700	0.846800	0.660800
H1001	H100	0.411400	0.833400	0.617300
C1261	C126	0.494500	0.045700	0.703700
H1011	H101	0.492100	0.066400	0.670500
C1271	C127	0.499000	0.998500	0.692600
H1021	H102	0.497800	0.988100	0.652300
C1281	C128	0.505100	0.966700	0.740800
C1291	C129	0.502100	0.984200	0.798500
H1031	H103	0.504400	0.964000	0.832100
C1301	C130	0.495700	0.032600	0.806600
H1041	H104	0.492800	0.044000	0.845500
C1311	C131	0.800400	0.746700	0.753900
H1051	H105	0.799200	0.743900	0.795800
C1321	C132	0.922700	0.747700	0.754400
H1061	H106	0.001200	0.744800	0.795900
C1331	C133	0.930800	0.752900	0.695100
C1341	C134	0.808200	0.756400	0.633600
H1071	H107	0.807500	0.760200	0.591400
C1351	C135	0.687500	0.754000	0.638100
H1081	H108	0.606800	0.755600	0.597500
C1361	C136	0.306400	0.761400	0.754500
H1091	H109	0.384200	0.766400	0.795700
C1371	C137	0.184200	0.761900	0.753300
H1101	H110	0.180000	0.767300	0.794000
C1381	C138	0.066900	0.754500	0.694100
C1391	C139	0.076100	0.746300	0.634500
H1111	H111	0.998900	0.740300	0.593500
C1401	C140	0.200100	0.747000	0.636400
H1121	H112	0.204600	0.742700	0.595600
C1411	C141	0.789700	0.619400	0.776500
H1131	H113	0.784400	0.614000	0.816900
C1421	C142	0.915800	0.619400	0.779000
H1141	H114	0.993000	0.614600	0.820500
C1431	C143	0.925900	0.626500	0.718800
C1441	C144	0.804900	0.632900	0.657800
H1151	H115	0.806200	0.636800	0.616200
C1451	C145	0.683200	0.633200	0.660400
H1161	H116	0.603800	0.638100	0.620000
C1461	C146	0.298500	0.641900	0.774800
H1171	H117	0.376500	0.649200	0.814800
C1471	C147	0.175600	0.640300	0.777000
H1181	H118	0.171400	0.647400	0.817200
C1481	C148	0.059300	0.627800	0.717400
C1491	C149	0.071300	0.618600	0.659300
H1191	H119	0.995500	0.611200	0.618400
C1501	C150	0.198300	0.620600	0.662000
H1201	H120	0.205400	0.612400	0.622900
Cu71	Cu7	0.497160	0.248680	0.799100
Cu81	Cu8	0.505640	0.132620	0.780220
O191	O19	0.108300	0.441400	0.522900
O201	O20	0.960100	0.390800	0.524600
O211	O21	0.177900	0.236300	0.556800
O221	O22	0.393700	0.232620	0.687800
O231	O23	0.410300	0.155430	0.674600
O241	O24	0.540900	0.186960	0.838700
N251	N25	0.007900	0.501900	0.591800
N261	N26	0.000400	0.503700	0.910100
N271	N27	0.481300	0.319100	0.784800
N281	N28	0.506400	0.563100	0.740900
N291	N29	0.318800	0.249500	0.803800
N301	N30	0.683800	0.253600	0.804700
N311	N31	0.323900	0.126700	0.781200
N321	N32	0.691700	0.133400	0.783000
C1511	C151	0.068700	0.401400	0.525400
C1521	C152	0.165300	0.361000	0.534100
C1531	C153	0.288800	0.370400	0.531800
H1211	H121	0.310400	0.400800	0.525800
C1541	C154	0.376700	0.333700	0.538500
C1551	C155	0.338700	0.288600	0.547600
H1221	H122	0.396700	0.264000	0.552900
C1561	C156	0.223800	0.279500	0.549100
C1571	C157	0.134900	0.315900	0.541900
H1231	H123	0.054100	0.309400	0.542400
C1581	C158	0.508000	0.344000	0.537700
H1241	H124	0.579400	0.345700	0.584100
H1251	H125	0.527100	0.319600	0.513600
H1261	H126	0.501100	0.373200	0.515000
C1591	C159	0.270100	0.197400	0.575500
H1271	H127	0.219100	0.168500	0.561900
H1281	H128	0.322700	0.199700	0.550900
C1601	C160	0.366600	0.196200	0.653800
C1611	C161	0.895300	0.512300	0.596600
H1291	H129	0.816800	0.519700	0.557000
C1621	C162	0.893700	0.512200	0.658600
H1301	H130	0.813800	0.518800	0.660000
C1631	C163	0.008100	0.502600	0.718600
C1641	C164	0.125800	0.492300	0.714000
H1311	H131	0.205900	0.485700	0.753300
C1651	C165	0.120800	0.492000	0.650100
H1321	H132	0.198800	0.484700	0.647100
C1661	C166	0.892500	0.490600	0.852200
H1331	H133	0.814200	0.482100	0.854100
C1671	C167	0.893700	0.489300	0.789700
H1341	H134	0.818200	0.478800	0.750700
C1681	C168	0.006100	0.503300	0.785100
C1691	C169	0.118800	0.518700	0.845600
H1351	H135	0.197300	0.528300	0.844800
C1701	C170	0.109000	0.519000	0.906200
H1361	H136	0.181500	0.530300	0.945800
C1711	C171	0.417100	0.338500	0.722800
H1371	H137	0.370300	0.319100	0.685100
C1721	C172	0.416600	0.387100	0.711600
H1381	H138	0.369300	0.399800	0.667800
C1731	C173	0.490400	0.415500	0.769100
C1741	C174	0.553300	0.395700	0.833400
H1391	H139	0.599400	0.414100	0.872300
C1751	C175	0.546300	0.346800	0.839200
H1401	H140	0.588600	0.333400	0.882700
C1761	C176	0.505500	0.545700	0.796300
H1411	H141	0.507900	0.566400	0.829500
C1771	C177	0.501000	0.498500	0.807400
H1421	H142	0.502200	0.488100	0.847700
C1781	C178	0.494900	0.466700	0.759200
C1791	C179	0.497900	0.484200	0.701500
H1431	H143	0.495600	0.464000	0.667900
C1801	C180	0.504300	0.532600	0.693400
H1441	H144	0.507200	0.544000	0.654500
C1811	C181	0.199600	0.246700	0.746100
H1451	H145	0.200800	0.243900	0.704200
C1821	C182	0.077300	0.247700	0.745600
H1461	H146	0.998800	0.244800	0.704100
C1831	C183	0.069200	0.252900	0.804900
C1841	C184	0.191800	0.256400	0.866400
H1471	H147	0.192500	0.260200	0.908600
C1851	C185	0.312500	0.254000	0.861900
H1481	H148	0.393200	0.255600	0.902500
C1861	C186	0.693600	0.261400	0.745500
H1491	H149	0.615800	0.266400	0.704300
C1871	C187	0.815800	0.261900	0.746700
H1501	H150	0.820000	0.267300	0.706000
C1881	C188	0.933100	0.254500	0.805900
C1891	C189	0.923900	0.246300	0.865500
H1511	H151	0.001100	0.240300	0.906500
C1901	C190	0.799900	0.247000	0.863600
H1521	H152	0.795400	0.242700	0.904400
C1911	C191	0.210300	0.119400	0.723500
H1531	H153	0.215600	0.114000	0.683100
C1921	C192	0.084200	0.119400	0.721000
H1541	H154	0.007000	0.114600	0.679500
C1931	C193	0.074100	0.126500	0.781200
C1941	C194	0.195100	0.132900	0.842200
H1551	H155	0.193800	0.136800	0.883800
C1951	C195	0.316800	0.133200	0.839600
H1561	H156	0.396200	0.138100	0.880000
C1961	C196	0.701500	0.141900	0.725200
H1571	H157	0.623500	0.149200	0.685200
C1971	C197	0.824400	0.140300	0.723000
H1581	H158	0.828600	0.147400	0.682800
C1981	C198	0.940700	0.127800	0.782600
C1991	C199	0.928700	0.118600	0.840700
H1591	H159	0.004500	0.111200	0.881600
C2001	C200	0.801700	0.120600	0.838000
H1601	H160	0.794600	0.112400	0.877100
Cu91	Cu9	0.000000	0.000000	0.000000
Cu101	Cu10	0.000000	0.500000	0.500000
Cu111	Cu11	0.000000	0.000000	0.500000
Cu121	Cu12	0.000000	0.500000	0.000000
