data_WENLEI_clean_PM
_symmetry_space_group_name_H-M	'P1'
_cell_length_a	9.167100
_cell_length_b	15.520000
_cell_length_c	22.199000
_cell_angle_alpha	102.890000
_cell_angle_beta	101.790000
_cell_angle_gamma	104.140000
_symmetry_Int_Tables_number 1

loop_
_symmetry_equiv_pos_as_xyz
'x,y,z'

loop_
_atom_site_label
_atom_site_type_symbol
_atom_site_fract_x
_atom_site_fract_y
_atom_site_fract_z
Ho11	Ho1	0.516750	0.861690	0.803530
Ho21	Ho2	0.029930	0.911460	0.856060
C11	C1	0.170900	0.876200	0.725200
C21	C2	0.090300	0.875600	0.659500
C31	C3	0.926500	0.851300	0.638100
H11	H1	0.867500	0.834900	0.665600
C41	C4	0.851400	0.851000	0.578100
H21	H2	0.742700	0.834000	0.565300
C51	C5	0.937500	0.876200	0.535600
C61	C6	0.095200	0.899100	0.556100
C71	C7	0.176600	0.901200	0.617700
H31	H3	0.285400	0.919300	0.630400
C81	C8	0.707900	0.850400	0.451700
H41	H4	0.667300	0.787900	0.453200
H51	H5	0.666200	0.890500	0.478000
H61	H6	0.678200	0.852700	0.408200
C91	C9	0.219600	0.897200	0.401300
C101	C10	0.075600	0.883600	0.361400
H71	H7	0.985200	0.849700	0.368500
C111	C11	0.067200	0.921400	0.309800
H81	H8	0.969800	0.915900	0.284000
C121	C12	0.197200	0.965400	0.296800
C131	C13	0.344900	0.977400	0.337300
H91	H9	0.435800	0.008000	0.328800
C141	C14	0.352700	0.942500	0.390500
H101	H10	0.449200	0.950500	0.418100
C151	C15	0.191400	0.005800	0.239800
C161	C16	0.212800	0.746200	0.855800
C171	C17	0.181300	0.653600	0.868900
C181	C18	0.060100	0.624700	0.896200
H111	H11	0.002500	0.664700	0.906700
C191	C19	0.022400	0.540900	0.908000
H121	H12	0.946100	0.525400	0.928900
C201	C20	0.102500	0.478800	0.887400
C211	C21	0.222000	0.505200	0.860200
H131	H13	0.276400	0.464200	0.847500
C221	C22	0.261000	0.592500	0.851900
H141	H14	0.343400	0.610200	0.834300
C231	C23	0.261800	0.329500	0.980200
C241	C24	0.211900	0.267800	0.011800
H151	H15	0.115500	0.261200	0.020700
C251	C25	0.303600	0.214500	0.031100
C261	C26	0.443000	0.223500	0.016500
H161	H16	0.503000	0.186500	0.028300
C271	C27	0.497000	0.285600	0.984900
H171	H17	0.592700	0.290200	0.975800
C281	C28	0.408700	0.342500	0.966100
C291	C29	0.242500	0.152800	0.069200
C301	C30	0.597000	0.422200	0.923300
H181	H18	0.673600	0.466600	0.960500
H191	H19	0.624600	0.365700	0.914300
H201	H20	0.594200	0.446500	0.887100
C311	C31	0.704600	0.729600	0.790100
C321	C32	0.754300	0.645400	0.773100
C331	C33	0.676300	0.564500	0.784900
H211	H21	0.595800	0.564300	0.804600
C341	C34	0.717700	0.484800	0.767800
C351	C35	0.840800	0.482600	0.738100
C361	C36	0.916600	0.562800	0.725800
H221	H22	0.996800	0.562800	0.706000
C371	C37	0.875300	0.643100	0.742600
H231	H23	0.927500	0.696200	0.733600
C381	C38	0.989900	0.395800	0.693800
H241	H24	0.961300	0.410600	0.654100
H251	H25	0.088800	0.438800	0.719900
H261	H26	0.998000	0.333900	0.684800
C391	C39	0.448600	0.251900	0.765000
C401	C40	0.325900	0.234500	0.791400
H271	H27	0.256600	0.269300	0.789600
C411	C41	0.305800	0.163200	0.821200
H281	H28	0.221800	0.149300	0.838600
C421	C42	0.411500	0.114700	0.824400
C431	C43	0.530000	0.130000	0.795000
H291	H29	0.595400	0.092700	0.795000
C441	C44	0.553900	0.200900	0.765200
H301	H30	0.635800	0.213200	0.746400
C451	C45	0.391000	0.038600	0.855400
O11	O1	0.089700	0.857800	0.762500
O21	O2	0.316400	0.892300	0.738000
O31	O3	0.877800	0.880700	0.475500
O41	O4	0.188200	0.929300	0.516200
O51	O5	0.108300	0.766100	0.452500
O61	O6	0.386600	0.855500	0.494100
O71	O7	0.059800	0.004200	0.210100
O81	O8	0.316400	0.036300	0.227500
O91	O9	0.138300	0.799500	0.876500
O101	O10	0.314800	0.766100	0.827100
O111	O11	0.903600	0.349300	0.913900
O121	O12	0.080300	0.302100	0.853700
O131	O13	0.181700	0.393200	0.968600
O141	O14	0.498900	0.000700	0.864500
O151	O15	0.268800	0.016100	0.873000
O161	O16	0.108600	0.142900	0.076000
O171	O17	0.333600	0.112600	0.094200
O181	O18	0.364400	0.389800	0.737200
O191	O19	0.641300	0.405000	0.781700
O201	O20	0.572900	0.719700	0.800400
O211	O21	0.448100	0.403900	0.935100
O221	O22	0.789800	0.806000	0.790600
O231	O23	0.873600	0.401600	0.726900
O241	O24	0.504300	0.316400	0.669600
S11	S1	0.229700	0.850800	0.467880
S21	S2	0.053000	0.369400	0.900810
S31	S3	0.478500	0.343500	0.730250
Ho31	Ho3	0.483250	0.138310	0.196470
Ho41	Ho4	0.970070	0.088540	0.143940
C461	C46	0.829100	0.123800	0.274800
C471	C47	0.909700	0.124400	0.340500
C481	C48	0.073500	0.148700	0.361900
H311	H31	0.132500	0.165100	0.334400
C491	C49	0.148600	0.149000	0.421900
H321	H32	0.257300	0.166000	0.434700
C501	C50	0.062500	0.123800	0.464400
C511	C51	0.904800	0.100900	0.443900
C521	C52	0.823400	0.098800	0.382300
H331	H33	0.714600	0.080700	0.369600
C531	C53	0.292100	0.149600	0.548300
H341	H34	0.332700	0.212100	0.546800
H351	H35	0.333800	0.109500	0.522000
H361	H36	0.321800	0.147300	0.591800
C541	C54	0.780400	0.102800	0.598700
C551	C55	0.924400	0.116400	0.638600
H371	H37	0.014800	0.150300	0.631500
C561	C56	0.932800	0.078600	0.690200
H381	H38	0.030200	0.084100	0.716000
C571	C57	0.802800	0.034600	0.703200
C581	C58	0.655100	0.022600	0.662700
H391	H39	0.564200	0.992000	0.671200
C591	C59	0.647300	0.057500	0.609500
H401	H40	0.550800	0.049500	0.581900
C601	C60	0.808600	0.994200	0.760200
C611	C61	0.787200	0.253800	0.144200
C621	C62	0.818700	0.346400	0.131100
C631	C63	0.939900	0.375300	0.103800
H411	H41	0.997500	0.335300	0.093300
C641	C64	0.977600	0.459100	0.092000
H421	H42	0.053900	0.474600	0.071100
C651	C65	0.897500	0.521200	0.112600
C661	C66	0.778000	0.494800	0.139800
H431	H43	0.723600	0.535800	0.152500
C671	C67	0.739000	0.407500	0.148100
H441	H44	0.656600	0.389800	0.165700
C681	C68	0.738200	0.670500	0.019800
C691	C69	0.788100	0.732200	0.988200
H451	H45	0.884500	0.738800	0.979300
C701	C70	0.696400	0.785500	0.968900
C711	C71	0.557000	0.776500	0.983500
H461	H46	0.497000	0.813500	0.971700
C721	C72	0.503000	0.714400	0.015100
H471	H47	0.407300	0.709800	0.024200
C731	C73	0.591300	0.657500	0.033900
C741	C74	0.757500	0.847200	0.930800
C751	C75	0.403000	0.577800	0.076700
H481	H48	0.326400	0.533400	0.039500
H491	H49	0.375400	0.634300	0.085700
H501	H50	0.405800	0.553500	0.112900
C761	C76	0.295400	0.270400	0.209900
C771	C77	0.245700	0.354600	0.226900
C781	C78	0.323700	0.435500	0.215100
H511	H51	0.404200	0.435700	0.195400
C791	C79	0.282300	0.515200	0.232200
C801	C80	0.159200	0.517400	0.261900
C811	C81	0.083400	0.437200	0.274200
H521	H52	0.003200	0.437200	0.294000
C821	C82	0.124700	0.356900	0.257400
H531	H53	0.072500	0.303800	0.266400
C831	C83	0.010100	0.604200	0.306200
H541	H54	0.038700	0.589400	0.345900
H551	H55	0.911200	0.561200	0.280100
H561	H56	0.002000	0.666100	0.315200
C841	C84	0.551400	0.748100	0.235000
C851	C85	0.674100	0.765500	0.208600
H571	H57	0.743400	0.730700	0.210400
C861	C86	0.694200	0.836800	0.178800
H581	H58	0.778200	0.850700	0.161400
C871	C87	0.588500	0.885300	0.175600
C881	C88	0.470000	0.870000	0.205000
H591	H59	0.404600	0.907300	0.205000
C891	C89	0.446100	0.799100	0.234800
H601	H60	0.364200	0.786800	0.253600
C901	C90	0.609000	0.961400	0.144600
O251	O25	0.910300	0.142200	0.237500
O261	O26	0.683600	0.107700	0.262000
O271	O27	0.122200	0.119300	0.524500
O281	O28	0.811800	0.070700	0.483800
O291	O29	0.891700	0.233900	0.547500
O301	O30	0.613400	0.144500	0.505900
O311	O31	0.940200	0.995800	0.789900
O321	O32	0.683600	0.963700	0.772500
O331	O33	0.861700	0.200500	0.123500
O341	O34	0.685200	0.233900	0.172900
O351	O35	0.096400	0.650700	0.086100
O361	O36	0.919700	0.697900	0.146300
O371	O37	0.818300	0.606800	0.031400
O381	O38	0.501100	0.999300	0.135500
O391	O39	0.731200	0.983900	0.127000
O401	O40	0.891400	0.857100	0.924000
O411	O41	0.666400	0.887400	0.905800
O421	O42	0.635600	0.610200	0.262800
O431	O43	0.358700	0.595000	0.218300
O441	O44	0.427100	0.280300	0.199600
O451	O45	0.551900	0.596100	0.064900
O461	O46	0.210200	0.194000	0.209400
O471	O47	0.126400	0.598400	0.273100
O481	O48	0.495700	0.683600	0.330400
S41	S4	0.770300	0.149200	0.532120
S51	S5	0.947000	0.630600	0.099190
S61	S6	0.521500	0.656500	0.269750
