data_WERHIK_clean_PM
_symmetry_space_group_name_H-M	'P1'
_cell_length_a	9.333000
_cell_length_b	9.183000
_cell_length_c	9.162000
_cell_angle_alpha	88.450000
_cell_angle_beta	102.570000
_cell_angle_gamma	93.760000
_symmetry_Int_Tables_number 1

loop_
_symmetry_equiv_pos_as_xyz
'x,y,z'

loop_
_atom_site_label
_atom_site_type_symbol
_atom_site_fract_x
_atom_site_fract_y
_atom_site_fract_z
Al11	Al1	0.912400	0.065100	0.363300
Al21	Al2	0.923300	0.658500	0.131000
Al31	Al3	0.344800	0.872800	0.106100
P11	P1	0.899900	0.312500	0.119200
P21	P2	0.678200	0.881500	0.127100
P31	P3	0.141100	0.854600	0.331100
F11	F1	0.919200	0.887500	0.487800
O11	O1	0.285100	0.879100	0.272100
O21	O2	0.660900	0.947100	0.969700
O31	O3	0.768200	0.747100	0.138600
O41	O4	0.035400	0.302700	0.036800
O51	O5	0.927800	0.237700	0.265000
O61	O6	0.038700	0.972700	0.267900
O71	O7	0.070900	0.704700	0.278000
O81	O8	0.522300	0.824900	0.149500
O91	O9	0.194500	0.854200	0.503100
O101	O10	0.880100	0.475400	0.140800
O111	O11	0.735900	0.985000	0.250500
O121	O12	0.759200	0.252400	0.013600
Al41	Al4	0.087600	0.934900	0.636700
Al51	Al5	0.076700	0.341500	0.869000
Al61	Al6	0.655200	0.127200	0.893900
P41	P4	0.100100	0.687500	0.880800
P51	P5	0.321800	0.118500	0.872900
P61	P6	0.858900	0.145400	0.668900
F21	F2	0.080800	0.112500	0.512200
O131	O13	0.714900	0.120900	0.727900
O141	O14	0.339100	0.052900	0.030300
O151	O15	0.231800	0.252900	0.861400
O161	O16	0.964600	0.697300	0.963200
O171	O17	0.072200	0.762300	0.735000
O181	O18	0.961300	0.027300	0.732100
O191	O19	0.929100	0.295300	0.722000
O201	O20	0.477700	0.175100	0.850500
O211	O21	0.805500	0.145800	0.496900
O221	O22	0.119900	0.524600	0.859200
O231	O23	0.264100	0.015000	0.749500
O241	O24	0.240800	0.747600	0.986400
