data_WEWTOI_clean_PM
_symmetry_space_group_name_H-M	'P1'
_cell_length_a	5.742000
_cell_length_b	8.550000
_cell_length_c	18.512000
_cell_angle_alpha	90.000000
_cell_angle_beta	90.000000
_cell_angle_gamma	90.000000
_symmetry_Int_Tables_number 1

loop_
_symmetry_equiv_pos_as_xyz
'x,y,z'

loop_
_atom_site_label
_atom_site_type_symbol
_atom_site_fract_x
_atom_site_fract_y
_atom_site_fract_z
Np11	Np1	0.492100	0.080550	0.516140
Np21	Np2	0.007900	0.919450	0.016140
Np31	Np3	0.507900	0.580550	0.983860
Np41	Np4	0.992100	0.419450	0.483860
H11	H1	0.864800	0.198200	0.148000
H21	H2	0.441200	0.958400	0.139700
H31	H3	0.933300	0.263100	0.265700
H41	H4	0.521100	0.009800	0.259600
H51	H5	0.635200	0.801800	0.648000
H61	H6	0.058800	0.041600	0.639700
H71	H7	0.566700	0.736900	0.765700
H81	H8	0.978900	0.990200	0.759600
H91	H9	0.135200	0.698200	0.352000
H101	H10	0.558800	0.458400	0.360300
H111	H11	0.066700	0.763100	0.234300
H121	H12	0.478900	0.509800	0.240400
H131	H13	0.364800	0.301800	0.852000
H141	H14	0.941200	0.541600	0.860300
H151	H15	0.433300	0.236900	0.734300
H161	H16	0.021100	0.490200	0.740400
C11	C1	0.997000	0.159000	0.170500
C21	C2	0.336000	0.017400	0.166300
C31	C3	0.040000	0.200300	0.241300
C41	C4	0.388800	0.051500	0.238000
C51	C5	0.240400	0.149000	0.276600
C61	C6	0.283100	0.186400	0.354200
C71	C7	0.503000	0.841000	0.670500
C81	C8	0.164000	0.982600	0.666300
C91	C9	0.460000	0.799700	0.741300
C101	C10	0.111200	0.948500	0.738000
C111	C11	0.259600	0.851000	0.776600
C121	C12	0.216900	0.813600	0.854200
C131	C13	0.003000	0.659000	0.329500
C141	C14	0.664000	0.517400	0.333700
C151	C15	0.960000	0.700300	0.258700
C161	C16	0.611200	0.551500	0.262000
C171	C17	0.759600	0.649000	0.223400
C181	C18	0.716900	0.686400	0.145800
C191	C19	0.497000	0.341000	0.829500
C201	C20	0.836000	0.482600	0.833700
C211	C21	0.540000	0.299700	0.758700
C221	C22	0.888800	0.448500	0.762000
C231	C23	0.740400	0.351000	0.723400
C241	C24	0.783100	0.313600	0.645800
N11	N1	0.136500	0.066300	0.133100
N21	N2	0.363500	0.933700	0.633100
N31	N3	0.863500	0.566300	0.366900
N41	N4	0.636500	0.433700	0.866900
O11	O1	0.423100	0.103300	0.386800
O21	O2	0.178300	0.303900	0.379300
O31	O3	0.253800	0.220900	0.529600
O41	O4	0.076900	0.896700	0.886800
O51	O5	0.321700	0.696100	0.879300
O61	O6	0.246200	0.779100	0.029600
O71	O7	0.576900	0.603300	0.113200
O81	O8	0.821700	0.803900	0.120700
O91	O9	0.746200	0.720900	0.970400
O101	O10	0.923100	0.396700	0.613200
O111	O11	0.678300	0.196100	0.620700
O121	O12	0.753800	0.279100	0.470400
