data_WEXQOF01_clean_PM
_symmetry_space_group_name_H-M	'P1'
_cell_length_a	9.551000
_cell_length_b	9.979000
_cell_length_c	10.000000
_cell_angle_alpha	107.670000
_cell_angle_beta	97.920000
_cell_angle_gamma	114.910000
_symmetry_Int_Tables_number 1

loop_
_symmetry_equiv_pos_as_xyz
'x,y,z'

loop_
_atom_site_label
_atom_site_type_symbol
_atom_site_fract_x
_atom_site_fract_y
_atom_site_fract_z
Co11	Co1	0.685600	0.206600	0.156700
Co21	Co2	0.863800	0.033000	0.612600
P11	P1	0.825100	0.599300	0.270000
P21	P2	0.844200	0.029200	0.306300
P31	P3	0.663100	0.969500	0.838500
O11	O1	0.658800	0.109400	0.949200
O21	O2	0.823000	0.159200	0.275700
O31	O3	0.829000	0.441300	0.210800
O41	O4	0.509200	0.810800	0.796600
O51	O5	0.750500	0.964600	0.403800
O61	O6	0.993500	0.736000	0.301800
O71	O7	0.693800	0.999600	0.703200
O81	O8	0.026200	0.093100	0.374200
O91	O9	0.695700	0.604400	0.168000
O101	O10	0.781000	0.615600	0.419700
O111	O11	0.780900	0.882200	0.151300
O121	O12	0.813100	0.954600	0.908300
Co31	Co3	0.314400	0.793400	0.843300
Co41	Co4	0.136200	0.967000	0.387400
P41	P4	0.174900	0.400700	0.730000
P51	P5	0.155800	0.970800	0.693700
P61	P6	0.336900	0.030500	0.161500
O131	O13	0.341200	0.890600	0.050800
O141	O14	0.177000	0.840800	0.724300
O151	O15	0.171000	0.558700	0.789200
O161	O16	0.490800	0.189200	0.203400
O171	O17	0.249500	0.035400	0.596200
O181	O18	0.006500	0.264000	0.698200
O191	O19	0.306200	0.000400	0.296800
O201	O20	0.973800	0.906900	0.625800
O211	O21	0.304300	0.395600	0.832000
O221	O22	0.219000	0.384400	0.580300
O231	O23	0.219100	0.117800	0.848700
O241	O24	0.186900	0.045400	0.091700
