data_WEXQUL_clean_PM
_symmetry_space_group_name_H-M	'P1'
_cell_length_a	5.235200
_cell_length_b	15.437000
_cell_length_c	17.975000
_cell_angle_alpha	90.000000
_cell_angle_beta	91.786000
_cell_angle_gamma	90.000000
_symmetry_Int_Tables_number 1

loop_
_symmetry_equiv_pos_as_xyz
'x,y,z'

loop_
_atom_site_label
_atom_site_type_symbol
_atom_site_fract_x
_atom_site_fract_y
_atom_site_fract_z
Zn11	Zn1	0.061500	0.765000	0.698780
Zn21	Zn2	0.567300	0.891550	0.743380
Zn31	Zn3	0.424800	0.595120	0.696300
Zn41	Zn4	0.890500	0.725220	0.931840
P11	P1	0.539300	0.762500	0.605600
P21	P2	0.073300	0.885700	0.838500
P31	P3	0.939300	0.599800	0.794000
O11	O1	0.824800	0.778100	0.616700
O21	O2	0.102500	0.643900	0.732700
O31	O3	0.401200	0.808700	0.671100
O41	O4	0.917100	0.851500	0.768000
O51	O5	0.003800	0.503900	0.791000
O61	O6	0.352200	0.862800	0.827000
O71	O7	0.028000	0.982700	0.845100
O81	O8	0.659100	0.619300	0.778400
O91	O9	0.467800	0.668600	0.607800
O101	O10	0.984100	0.841700	0.908200
O111	O11	0.024000	0.635800	0.869900
O121	O12	0.451100	0.805800	0.533800
O131	O13	0.511800	0.725400	0.906700
H11	H1	0.453200	0.676900	0.913800
Zn51	Zn5	0.438500	0.265000	0.801220
Zn61	Zn6	0.932700	0.391550	0.756620
Zn71	Zn7	0.075200	0.095120	0.803700
Zn81	Zn8	0.609500	0.225220	0.568160
P41	P4	0.960700	0.262500	0.894400
P51	P5	0.426700	0.385700	0.661500
P61	P6	0.560700	0.099800	0.706000
O141	O14	0.675200	0.278100	0.883300
O151	O15	0.397500	0.143900	0.767300
O161	O16	0.098800	0.308700	0.828900
O171	O17	0.582900	0.351500	0.732000
O181	O18	0.496200	0.003900	0.709000
O191	O19	0.147800	0.362800	0.673000
O201	O20	0.472000	0.482700	0.654900
O211	O21	0.840900	0.119300	0.721600
O221	O22	0.032200	0.168600	0.892200
O231	O23	0.515900	0.341700	0.591800
O241	O24	0.476000	0.135800	0.630100
O251	O25	0.048900	0.305800	0.966200
O261	O26	0.988200	0.225400	0.593300
H21	H2	0.046800	0.176900	0.586200
Zn91	Zn9	0.938500	0.235000	0.301220
Zn101	Zn10	0.432700	0.108450	0.256620
Zn111	Zn11	0.575200	0.404880	0.303700
Zn121	Zn12	0.109500	0.274780	0.068160
P71	P7	0.460700	0.237500	0.394400
P81	P8	0.926700	0.114300	0.161500
P91	P9	0.060700	0.400200	0.206000
O271	O27	0.175200	0.221900	0.383300
O281	O28	0.897500	0.356100	0.267300
O291	O29	0.598800	0.191300	0.328900
O301	O30	0.082900	0.148500	0.232000
O311	O31	0.996200	0.496100	0.209000
O321	O32	0.647800	0.137200	0.173000
O331	O33	0.972000	0.017300	0.154900
O341	O34	0.340900	0.380700	0.221600
O351	O35	0.532200	0.331400	0.392200
O361	O36	0.015900	0.158300	0.091800
O371	O37	0.976000	0.364200	0.130100
O381	O38	0.548900	0.194200	0.466200
O391	O39	0.488200	0.274600	0.093300
H31	H3	0.546800	0.323100	0.086200
Zn131	Zn13	0.561500	0.735000	0.198780
Zn141	Zn14	0.067300	0.608450	0.243380
Zn151	Zn15	0.924800	0.904880	0.196300
Zn161	Zn16	0.390500	0.774780	0.431840
P101	P10	0.039300	0.737500	0.105600
P111	P11	0.573300	0.614300	0.338500
P121	P12	0.439300	0.900200	0.294000
O401	O40	0.324800	0.721900	0.116700
O411	O41	0.602500	0.856100	0.232700
O421	O42	0.901200	0.691300	0.171100
O431	O43	0.417100	0.648500	0.268000
O441	O44	0.503800	0.996100	0.291000
O451	O45	0.852200	0.637200	0.327000
O461	O46	0.528000	0.517300	0.345100
O471	O47	0.159100	0.880700	0.278400
O481	O48	0.967800	0.831400	0.107800
O491	O49	0.484100	0.658300	0.408200
O501	O50	0.524000	0.864200	0.369900
O511	O51	0.951100	0.694200	0.033800
O521	O52	0.011800	0.774600	0.406700
H41	H4	0.953200	0.823100	0.413800
