data_WEYQAU12_clean_PM
_symmetry_space_group_name_H-M	'P1'
_cell_length_a	14.384700
_cell_length_b	12.288800
_cell_length_c	16.602900
_cell_angle_alpha	90.000000
_cell_angle_beta	90.000000
_cell_angle_gamma	90.000000
_symmetry_Int_Tables_number 1

loop_
_symmetry_equiv_pos_as_xyz
'x,y,z'

loop_
_atom_site_label
_atom_site_type_symbol
_atom_site_fract_x
_atom_site_fract_y
_atom_site_fract_z
Mn11	Mn1	0.106890	0.477680	0.926150
O11	O1	0.290300	0.522500	0.522500
O21	O2	0.295800	0.374000	0.450900
O31	O3	0.098500	0.334600	0.841100
O41	O4	0.999400	0.074000	0.629100
C11	C1	0.148100	0.281600	0.544400
H11	H1	0.149700	0.257800	0.491200
O51	O5	0.017000	0.119300	0.500700
C21	C2	0.265200	0.426600	0.509200
C31	C3	0.195200	0.408300	0.646500
H21	H2	0.226400	0.471400	0.661500
C41	C4	0.140700	0.390500	0.788900
C51	C5	0.200500	0.372300	0.567000
C61	C6	0.033600	0.133600	0.574200
O61	O6	0.179400	0.478200	0.806200
C71	C7	0.093400	0.260700	0.679400
H31	H3	0.058900	0.222500	0.717400
C81	C8	0.093200	0.226300	0.600300
C91	C9	0.144100	0.351500	0.703300
Mn21	Mn2	0.393110	0.522320	0.426150
O71	O7	0.209700	0.477500	0.022500
O81	O8	0.204200	0.626000	0.950900
O91	O9	0.401500	0.665400	0.341100
O101	O10	0.500600	0.926000	0.129100
C101	C10	0.351900	0.718400	0.044400
H41	H4	0.350300	0.742200	0.991200
O111	O11	0.483000	0.880700	0.000700
C111	C11	0.234800	0.573400	0.009200
C121	C12	0.304800	0.591700	0.146500
H51	H5	0.273600	0.528600	0.161500
C131	C13	0.359300	0.609500	0.288900
C141	C14	0.299500	0.627700	0.067000
C151	C15	0.466400	0.866400	0.074200
O121	O12	0.320600	0.521800	0.306200
C161	C16	0.406600	0.739300	0.179400
H61	H6	0.441100	0.777500	0.217400
C171	C17	0.406800	0.773700	0.100300
C181	C18	0.355900	0.648500	0.203300
Mn31	Mn3	0.893110	0.977680	0.573850
O131	O13	0.709700	0.022500	0.977500
O141	O14	0.704200	0.874000	0.049100
O151	O15	0.901500	0.834600	0.658900
O161	O16	0.000600	0.574000	0.870900
C191	C19	0.851900	0.781600	0.955600
H71	H7	0.850300	0.757800	0.008800
O171	O17	0.983000	0.619300	0.999300
C201	C20	0.734800	0.926600	0.990800
C211	C21	0.804800	0.908300	0.853500
H81	H8	0.773600	0.971400	0.838500
C221	C22	0.859300	0.890500	0.711100
C231	C23	0.799500	0.872300	0.933000
C241	C24	0.966400	0.633600	0.925800
O181	O18	0.820600	0.978200	0.693800
C251	C25	0.906600	0.760700	0.820600
H91	H9	0.941100	0.722500	0.782600
C261	C26	0.906800	0.726300	0.899700
C271	C27	0.855900	0.851500	0.796700
Mn41	Mn4	0.606890	0.022320	0.073850
O191	O19	0.790300	0.977500	0.477500
O201	O20	0.795800	0.126000	0.549100
O211	O21	0.598500	0.165400	0.158900
O221	O22	0.499400	0.426000	0.370900
C281	C28	0.648100	0.218400	0.455600
H101	H10	0.649700	0.242200	0.508800
O231	O23	0.517000	0.380700	0.499300
C291	C29	0.765200	0.073400	0.490800
C301	C30	0.695200	0.091700	0.353500
H111	H11	0.726400	0.028600	0.338500
C311	C31	0.640700	0.109500	0.211100
C321	C32	0.700500	0.127700	0.433000
C331	C33	0.533600	0.366400	0.425800
O241	O24	0.679400	0.021800	0.193800
C341	C34	0.593400	0.239300	0.320600
H121	H12	0.558900	0.277500	0.282600
C351	C35	0.593200	0.273700	0.399700
C361	C36	0.644100	0.148500	0.296700
Mn51	Mn5	0.893110	0.522320	0.073850
O251	O25	0.709700	0.477500	0.477500
O261	O26	0.704200	0.626000	0.549100
O271	O27	0.901500	0.665400	0.158900
O281	O28	0.000600	0.926000	0.370900
C371	C37	0.851900	0.718400	0.455600
H131	H13	0.850300	0.742200	0.508800
O291	O29	0.983000	0.880700	0.499300
C381	C38	0.734800	0.573400	0.490800
C391	C39	0.804800	0.591700	0.353500
H141	H14	0.773600	0.528600	0.338500
C401	C40	0.859300	0.609500	0.211100
C411	C41	0.799500	0.627700	0.433000
C421	C42	0.966400	0.866400	0.425800
O301	O30	0.820600	0.521800	0.193800
C431	C43	0.906600	0.739300	0.320600
H151	H15	0.941100	0.777500	0.282600
C441	C44	0.906800	0.773700	0.399700
C451	C45	0.855900	0.648500	0.296700
Mn61	Mn6	0.606890	0.477680	0.573850
O311	O31	0.790300	0.522500	0.977500
O321	O32	0.795800	0.374000	0.049100
O331	O33	0.598500	0.334600	0.658900
O341	O34	0.499400	0.074000	0.870900
C461	C46	0.648100	0.281600	0.955600
H161	H16	0.649700	0.257800	0.008800
O351	O35	0.517000	0.119300	0.999300
C471	C47	0.765200	0.426600	0.990800
C481	C48	0.695200	0.408300	0.853500
H171	H17	0.726400	0.471400	0.838500
C491	C49	0.640700	0.390500	0.711100
C501	C50	0.700500	0.372300	0.933000
C511	C51	0.533600	0.133600	0.925800
O361	O36	0.679400	0.478200	0.693800
C521	C52	0.593400	0.260700	0.820600
H181	H18	0.558900	0.222500	0.782600
C531	C53	0.593200	0.226300	0.899700
C541	C54	0.644100	0.351500	0.796700
Mn71	Mn7	0.106890	0.022320	0.426150
O371	O37	0.290300	0.977500	0.022500
O381	O38	0.295800	0.126000	0.950900
O391	O39	0.098500	0.165400	0.341100
O401	O40	0.999400	0.426000	0.129100
C551	C55	0.148100	0.218400	0.044400
H191	H19	0.149700	0.242200	0.991200
O411	O41	0.017000	0.380700	0.000700
C561	C56	0.265200	0.073400	0.009200
C571	C57	0.195200	0.091700	0.146500
H201	H20	0.226400	0.028600	0.161500
C581	C58	0.140700	0.109500	0.288900
C591	C59	0.200500	0.127700	0.067000
C601	C60	0.033600	0.366400	0.074200
O421	O42	0.179400	0.021800	0.306200
C611	C61	0.093400	0.239300	0.179400
H211	H21	0.058900	0.277500	0.217400
C621	C62	0.093200	0.273700	0.100300
C631	C63	0.144100	0.148500	0.203300
Mn81	Mn8	0.393110	0.977680	0.926150
O431	O43	0.209700	0.022500	0.522500
O441	O44	0.204200	0.874000	0.450900
O451	O45	0.401500	0.834600	0.841100
O461	O46	0.500600	0.574000	0.629100
C641	C64	0.351900	0.781600	0.544400
H221	H22	0.350300	0.757800	0.491200
O471	O47	0.483000	0.619300	0.500700
C651	C65	0.234800	0.926600	0.509200
C661	C66	0.304800	0.908300	0.646500
H231	H23	0.273600	0.971400	0.661500
C671	C67	0.359300	0.890500	0.788900
C681	C68	0.299500	0.872300	0.567000
C691	C69	0.466400	0.633600	0.574200
O481	O48	0.320600	0.978200	0.806200
C701	C70	0.406600	0.760700	0.679400
H241	H24	0.441100	0.722500	0.717400
C711	C71	0.406800	0.726300	0.600300
C721	C72	0.355900	0.851500	0.703300
