data_WEYQAU04_clean_PM
_symmetry_space_group_name_H-M	'P1'
_cell_length_a	14.645200
_cell_length_b	12.367200
_cell_length_c	16.664800
_cell_angle_alpha	90.000000
_cell_angle_beta	90.000000
_cell_angle_gamma	90.000000
_symmetry_Int_Tables_number 1

loop_
_symmetry_equiv_pos_as_xyz
'x,y,z'

loop_
_atom_site_label
_atom_site_type_symbol
_atom_site_fract_x
_atom_site_fract_y
_atom_site_fract_z
O11	O1	0.675340	0.487930	0.700850
O21	O2	0.790500	0.520910	0.983890
O31	O3	0.595210	0.345380	0.666110
O41	O4	0.801250	0.369770	0.051090
C11	C1	0.768600	0.426300	0.994520
C21	C2	0.638420	0.397600	0.716560
C31	C3	0.642700	0.358200	0.802390
O51	O5	0.501360	0.079630	0.873770
Mn11	Mn1	0.605170	0.481400	0.578340
C41	C4	0.537000	0.136600	0.928690
C51	C5	0.652200	0.281600	0.959250
H11	H1	0.655800	0.255400	0.012700
C61	C6	0.596300	0.229700	0.903950
C71	C7	0.703000	0.371900	0.936760
C81	C8	0.593300	0.267000	0.825460
H21	H2	0.557100	0.229900	0.787000
C91	C9	0.695900	0.411900	0.859110
H31	H3	0.727400	0.476100	0.844600
O61	O6	0.522980	0.120240	0.002590
O71	O7	0.824660	0.512070	0.200850
O81	O8	0.709500	0.479090	0.483890
O91	O9	0.904790	0.654620	0.166110
O101	O10	0.698750	0.630230	0.551090
C101	C10	0.731400	0.573700	0.494520
C111	C11	0.861580	0.602400	0.216560
C121	C12	0.857300	0.641800	0.302390
O111	O11	0.998640	0.920370	0.373770
Mn21	Mn2	0.894830	0.518600	0.078340
C131	C13	0.963000	0.863400	0.428690
C141	C14	0.847800	0.718400	0.459250
H41	H4	0.844200	0.744600	0.512700
C151	C15	0.903700	0.770300	0.403950
C161	C16	0.797000	0.628100	0.436760
C171	C17	0.906700	0.733000	0.325460
H51	H5	0.942900	0.770100	0.287000
C181	C18	0.804100	0.588100	0.359110
H61	H6	0.772600	0.523900	0.344600
O121	O12	0.977020	0.879760	0.502590
O131	O13	0.324660	0.987930	0.799150
O141	O14	0.209500	0.020910	0.516110
O151	O15	0.404790	0.845380	0.833890
O161	O16	0.198750	0.869770	0.448910
C191	C19	0.231400	0.926300	0.505480
C201	C20	0.361580	0.897600	0.783440
C211	C21	0.357300	0.858200	0.697610
O171	O17	0.498640	0.579630	0.626230
Mn31	Mn3	0.394830	0.981400	0.921660
C221	C22	0.463000	0.636600	0.571310
C231	C23	0.347800	0.781600	0.540750
H71	H7	0.344200	0.755400	0.487300
C241	C24	0.403700	0.729700	0.596050
C251	C25	0.297000	0.871900	0.563240
C261	C26	0.406700	0.767000	0.674540
H81	H8	0.442900	0.729900	0.713000
C271	C27	0.304100	0.911900	0.640890
H91	H9	0.272600	0.976100	0.655400
O181	O18	0.477020	0.620240	0.497410
O191	O19	0.175340	0.012070	0.299150
O201	O20	0.290500	0.979090	0.016110
O211	O21	0.095210	0.154620	0.333890
O221	O22	0.301250	0.130230	0.948910
C281	C28	0.268600	0.073700	0.005480
C291	C29	0.138420	0.102400	0.283440
C301	C30	0.142700	0.141800	0.197610
O231	O23	0.001360	0.420370	0.126230
Mn41	Mn4	0.105170	0.018600	0.421660
C311	C31	0.037000	0.363400	0.071310
C321	C32	0.152200	0.218400	0.040750
H101	H10	0.155800	0.244600	0.987300
C331	C33	0.096300	0.270300	0.096050
C341	C34	0.203000	0.128100	0.063240
C351	C35	0.093300	0.233000	0.174540
H111	H11	0.057100	0.270100	0.213000
C361	C36	0.195900	0.088100	0.140890
H121	H12	0.227400	0.023900	0.155400
O241	O24	0.022980	0.379760	0.997410
O251	O25	0.324660	0.512070	0.299150
O261	O26	0.209500	0.479090	0.016110
O271	O27	0.404790	0.654620	0.333890
O281	O28	0.198750	0.630230	0.948910
C371	C37	0.231400	0.573700	0.005480
C381	C38	0.361580	0.602400	0.283440
C391	C39	0.357300	0.641800	0.197610
O291	O29	0.498640	0.920370	0.126230
Mn51	Mn5	0.394830	0.518600	0.421660
C401	C40	0.463000	0.863400	0.071310
C411	C41	0.347800	0.718400	0.040750
H131	H13	0.344200	0.744600	0.987300
C421	C42	0.403700	0.770300	0.096050
C431	C43	0.297000	0.628100	0.063240
C441	C44	0.406700	0.733000	0.174540
H141	H14	0.442900	0.770100	0.213000
C451	C45	0.304100	0.588100	0.140890
H151	H15	0.272600	0.523900	0.155400
O301	O30	0.477020	0.879760	0.997410
O311	O31	0.175340	0.487930	0.799150
O321	O32	0.290500	0.520910	0.516110
O331	O33	0.095210	0.345380	0.833890
O341	O34	0.301250	0.369770	0.448910
C461	C46	0.268600	0.426300	0.505480
C471	C47	0.138420	0.397600	0.783440
C481	C48	0.142700	0.358200	0.697610
O351	O35	0.001360	0.079630	0.626230
Mn61	Mn6	0.105170	0.481400	0.921660
C491	C49	0.037000	0.136600	0.571310
C501	C50	0.152200	0.281600	0.540750
H161	H16	0.155800	0.255400	0.487300
C511	C51	0.096300	0.229700	0.596050
C521	C52	0.203000	0.371900	0.563240
C531	C53	0.093300	0.267000	0.674540
H171	H17	0.057100	0.229900	0.713000
C541	C54	0.195900	0.411900	0.640890
H181	H18	0.227400	0.476100	0.655400
O361	O36	0.022980	0.120240	0.497410
O371	O37	0.675340	0.012070	0.200850
O381	O38	0.790500	0.979090	0.483890
O391	O39	0.595210	0.154620	0.166110
O401	O40	0.801250	0.130230	0.551090
C551	C55	0.768600	0.073700	0.494520
C561	C56	0.638420	0.102400	0.216560
C571	C57	0.642700	0.141800	0.302390
O411	O41	0.501360	0.420370	0.373770
Mn71	Mn7	0.605170	0.018600	0.078340
C581	C58	0.537000	0.363400	0.428690
C591	C59	0.652200	0.218400	0.459250
H191	H19	0.655800	0.244600	0.512700
C601	C60	0.596300	0.270300	0.403950
C611	C61	0.703000	0.128100	0.436760
C621	C62	0.593300	0.233000	0.325460
H201	H20	0.557100	0.270100	0.287000
C631	C63	0.695900	0.088100	0.359110
H211	H21	0.727400	0.023900	0.344600
O421	O42	0.522980	0.379760	0.502590
O431	O43	0.824660	0.987930	0.700850
O441	O44	0.709500	0.020910	0.983890
O451	O45	0.904790	0.845380	0.666110
O461	O46	0.698750	0.869770	0.051090
C641	C64	0.731400	0.926300	0.994520
C651	C65	0.861580	0.897600	0.716560
C661	C66	0.857300	0.858200	0.802390
O471	O47	0.998640	0.579630	0.873770
Mn81	Mn8	0.894830	0.981400	0.578340
C671	C67	0.963000	0.636600	0.928690
C681	C68	0.847800	0.781600	0.959250
H221	H22	0.844200	0.755400	0.012700
C691	C69	0.903700	0.729700	0.903950
C701	C70	0.797000	0.871900	0.936760
C711	C71	0.906700	0.767000	0.825460
H231	H23	0.942900	0.729900	0.787000
C721	C72	0.804100	0.911900	0.859110
H241	H24	0.772600	0.976100	0.844600
O481	O48	0.977020	0.620240	0.002590
