data_WEYQAU10_clean_PM
_symmetry_space_group_name_H-M	'P1'
_cell_length_a	15.040100
_cell_length_b	12.536600
_cell_length_c	16.532000
_cell_angle_alpha	90.000000
_cell_angle_beta	90.000000
_cell_angle_gamma	90.000000
_symmetry_Int_Tables_number 1

loop_
_symmetry_equiv_pos_as_xyz
'x,y,z'

loop_
_atom_site_label
_atom_site_type_symbol
_atom_site_fract_x
_atom_site_fract_y
_atom_site_fract_z
Mn11	Mn1	0.603800	0.487180	0.583500
O11	O1	0.592800	0.355400	0.673400
O21	O2	0.668000	0.493300	0.709700
O31	O3	0.528700	0.380800	0.507900
O41	O4	0.499900	0.589200	0.621650
O51	O5	0.699800	0.635400	0.556900
O61	O6	0.706900	0.488800	0.490600
C11	C1	0.633300	0.405300	0.724600
C21	C2	0.639500	0.363400	0.809800
C31	C3	0.591500	0.272900	0.832600
C41	C4	0.693400	0.412500	0.867100
C51	C5	0.596300	0.232300	0.910600
C61	C6	0.701800	0.369800	0.944400
C71	C7	0.538800	0.139800	0.933800
C81	C8	0.652300	0.280700	0.965500
C91	C9	0.768800	0.420400	0.001900
Mn21	Mn2	0.896200	0.512820	0.083500
O71	O7	0.907200	0.644600	0.173400
O81	O8	0.832000	0.506700	0.209700
O91	O9	0.971300	0.619200	0.007900
O101	O10	0.000100	0.410800	0.121650
O111	O11	0.800200	0.364600	0.056900
O121	O12	0.793100	0.511200	0.990600
C101	C10	0.866700	0.594700	0.224600
C111	C11	0.860500	0.636600	0.309800
C121	C12	0.908500	0.727100	0.332600
C131	C13	0.806600	0.587500	0.367100
C141	C14	0.903700	0.767700	0.410600
C151	C15	0.798200	0.630200	0.444400
C161	C16	0.961200	0.860200	0.433800
C171	C17	0.847700	0.719300	0.465500
C181	C18	0.731200	0.579600	0.501900
Mn31	Mn3	0.396200	0.987180	0.916500
O131	O13	0.407200	0.855400	0.826600
O141	O14	0.332000	0.993300	0.790300
O151	O15	0.471300	0.880800	0.992100
O161	O16	0.500100	0.089200	0.878350
O171	O17	0.300200	0.135400	0.943100
O181	O18	0.293100	0.988800	0.009400
C191	C19	0.366700	0.905300	0.775400
C201	C20	0.360500	0.863400	0.690200
C211	C21	0.408500	0.772900	0.667400
C221	C22	0.306600	0.912500	0.632900
C231	C23	0.403700	0.732300	0.589400
C241	C24	0.298200	0.869800	0.555600
C251	C25	0.461200	0.639800	0.566200
C261	C26	0.347700	0.780700	0.534500
C271	C27	0.231200	0.920400	0.498100
Mn41	Mn4	0.103800	0.012820	0.416500
O191	O19	0.092800	0.144600	0.326600
O201	O20	0.168000	0.006700	0.290300
O211	O21	0.028700	0.119200	0.492100
O221	O22	0.999900	0.910800	0.378350
O231	O23	0.199800	0.864600	0.443100
O241	O24	0.206900	0.011200	0.509400
C281	C28	0.133300	0.094700	0.275400
C291	C29	0.139500	0.136600	0.190200
C301	C30	0.091500	0.227100	0.167400
C311	C31	0.193400	0.087500	0.132900
C321	C32	0.096300	0.267700	0.089400
C331	C33	0.201800	0.130200	0.055600
C341	C34	0.038800	0.360200	0.066200
C351	C35	0.152300	0.219300	0.034500
C361	C36	0.268800	0.079600	0.998100
Mn51	Mn5	0.396200	0.512820	0.416500
O251	O25	0.407200	0.644600	0.326600
O261	O26	0.332000	0.506700	0.290300
O271	O27	0.471300	0.619200	0.492100
O281	O28	0.500100	0.410800	0.378350
O291	O29	0.300200	0.364600	0.443100
O301	O30	0.293100	0.511200	0.509400
C371	C37	0.366700	0.594700	0.275400
C381	C38	0.360500	0.636600	0.190200
C391	C39	0.408500	0.727100	0.167400
C401	C40	0.306600	0.587500	0.132900
C411	C41	0.403700	0.767700	0.089400
C421	C42	0.298200	0.630200	0.055600
C431	C43	0.461200	0.860200	0.066200
C441	C44	0.347700	0.719300	0.034500
C451	C45	0.231200	0.579600	0.998100
Mn61	Mn6	0.103800	0.487180	0.916500
O311	O31	0.092800	0.355400	0.826600
O321	O32	0.168000	0.493300	0.790300
O331	O33	0.028700	0.380800	0.992100
O341	O34	0.999900	0.589200	0.878350
O351	O35	0.199800	0.635400	0.943100
O361	O36	0.206900	0.488800	0.009400
C461	C46	0.133300	0.405300	0.775400
C471	C47	0.139500	0.363400	0.690200
C481	C48	0.091500	0.272900	0.667400
C491	C49	0.193400	0.412500	0.632900
C501	C50	0.096300	0.232300	0.589400
C511	C51	0.201800	0.369800	0.555600
C521	C52	0.038800	0.139800	0.566200
C531	C53	0.152300	0.280700	0.534500
C541	C54	0.268800	0.420400	0.498100
Mn71	Mn7	0.603800	0.012820	0.083500
O371	O37	0.592800	0.144600	0.173400
O381	O38	0.668000	0.006700	0.209700
O391	O39	0.528700	0.119200	0.007900
O401	O40	0.499900	0.910800	0.121650
O411	O41	0.699800	0.864600	0.056900
O421	O42	0.706900	0.011200	0.990600
C551	C55	0.633300	0.094700	0.224600
C561	C56	0.639500	0.136600	0.309800
C571	C57	0.591500	0.227100	0.332600
C581	C58	0.693400	0.087500	0.367100
C591	C59	0.596300	0.267700	0.410600
C601	C60	0.701800	0.130200	0.444400
C611	C61	0.538800	0.360200	0.433800
C621	C62	0.652300	0.219300	0.465500
C631	C63	0.768800	0.079600	0.501900
Mn81	Mn8	0.896200	0.987180	0.583500
O431	O43	0.907200	0.855400	0.673400
O441	O44	0.832000	0.993300	0.709700
O451	O45	0.971300	0.880800	0.507900
O461	O46	0.000100	0.089200	0.621650
O471	O47	0.800200	0.135400	0.556900
O481	O48	0.793100	0.988800	0.490600
C641	C64	0.866700	0.905300	0.724600
C651	C65	0.860500	0.863400	0.809800
C661	C66	0.908500	0.772900	0.832600
C671	C67	0.806600	0.912500	0.867100
C681	C68	0.903700	0.732300	0.910600
C691	C69	0.798200	0.869800	0.944400
C701	C70	0.961200	0.639800	0.933800
C711	C71	0.847700	0.780700	0.965500
C721	C72	0.731200	0.920400	0.001900
