data_WEYQAU13_clean_PM
_symmetry_space_group_name_H-M	'P1'
_cell_length_a	14.198500
_cell_length_b	12.074500
_cell_length_c	16.561600
_cell_angle_alpha	90.000000
_cell_angle_beta	90.000000
_cell_angle_gamma	90.000000
_symmetry_Int_Tables_number 1

loop_
_symmetry_equiv_pos_as_xyz
'x,y,z'

loop_
_atom_site_label
_atom_site_type_symbol
_atom_site_fract_x
_atom_site_fract_y
_atom_site_fract_z
Mn11	Mn1	0.608870	0.473420	0.567740
O11	O1	0.792800	0.524100	0.967600
O21	O2	0.790300	0.377400	0.045700
O31	O3	0.601900	0.322500	0.650600
O41	O4	0.496300	0.066800	0.867400
C11	C1	0.644000	0.281600	0.951300
H11	H1	0.642700	0.260900	0.005400
O51	O5	0.509400	0.119000	0.995400
C21	C2	0.764400	0.428200	0.984700
C31	C3	0.696400	0.404600	0.846500
H21	H2	0.728700	0.468100	0.831000
C41	C4	0.645600	0.380400	0.702600
C51	C5	0.698500	0.370100	0.927400
C61	C6	0.527700	0.131300	0.920500
O61	O6	0.687900	0.468000	0.683800
C71	C7	0.593400	0.254100	0.813500
H31	H3	0.559500	0.214000	0.775400
C81	C8	0.590500	0.222700	0.894800
C91	C9	0.646100	0.344200	0.789600
Mn21	Mn2	0.891130	0.526580	0.067740
O71	O7	0.707200	0.475900	0.467600
O81	O8	0.709700	0.622600	0.545700
O91	O9	0.898100	0.677500	0.150600
O101	O10	0.003700	0.933200	0.367400
C101	C10	0.856000	0.718400	0.451300
H41	H4	0.857300	0.739100	0.505400
O111	O11	0.990600	0.881000	0.495400
C111	C11	0.735600	0.571800	0.484700
C121	C12	0.803600	0.595400	0.346500
H51	H5	0.771300	0.531900	0.331000
C131	C13	0.854400	0.619600	0.202600
C141	C14	0.801500	0.629900	0.427400
C151	C15	0.972300	0.868700	0.420500
O121	O12	0.812100	0.532000	0.183800
C161	C16	0.906600	0.745900	0.313500
H61	H6	0.940500	0.786000	0.275400
C171	C17	0.909500	0.777300	0.394800
C181	C18	0.853900	0.655800	0.289600
Mn31	Mn3	0.391130	0.973420	0.932260
O131	O13	0.207200	0.024100	0.532400
O141	O14	0.209700	0.877400	0.454300
O151	O15	0.398100	0.822500	0.849400
O161	O16	0.503700	0.566800	0.632600
C191	C19	0.356000	0.781600	0.548700
H71	H7	0.357300	0.760900	0.494600
O171	O17	0.490600	0.619000	0.504600
C201	C20	0.235600	0.928200	0.515300
C211	C21	0.303600	0.904600	0.653500
H81	H8	0.271300	0.968100	0.669000
C221	C22	0.354400	0.880400	0.797400
C231	C23	0.301500	0.870100	0.572600
C241	C24	0.472300	0.631300	0.579500
O181	O18	0.312100	0.968000	0.816200
C251	C25	0.406600	0.754100	0.686500
H91	H9	0.440500	0.714000	0.724600
C261	C26	0.409500	0.722700	0.605200
C271	C27	0.353900	0.844200	0.710400
Mn41	Mn4	0.108870	0.026580	0.432260
O191	O19	0.292800	0.975900	0.032400
O201	O20	0.290300	0.122600	0.954300
O211	O21	0.101900	0.177500	0.349400
O221	O22	0.996300	0.433200	0.132600
C281	C28	0.144000	0.218400	0.048700
H101	H10	0.142700	0.239100	0.994600
O231	O23	0.009400	0.381000	0.004600
C291	C29	0.264400	0.071800	0.015300
C301	C30	0.196400	0.095400	0.153500
H111	H11	0.228700	0.031900	0.169000
C311	C31	0.145600	0.119600	0.297400
C321	C32	0.198500	0.129900	0.072600
C331	C33	0.027700	0.368700	0.079500
O241	O24	0.187900	0.032000	0.316200
C341	C34	0.093400	0.245900	0.186500
H121	H12	0.059500	0.286000	0.224600
C351	C35	0.090500	0.277300	0.105200
C361	C36	0.146100	0.155800	0.210400
Mn51	Mn5	0.391130	0.526580	0.432260
O251	O25	0.207200	0.475900	0.032400
O261	O26	0.209700	0.622600	0.954300
O271	O27	0.398100	0.677500	0.349400
O281	O28	0.503700	0.933200	0.132600
C371	C37	0.356000	0.718400	0.048700
H131	H13	0.357300	0.739100	0.994600
O291	O29	0.490600	0.881000	0.004600
C381	C38	0.235600	0.571800	0.015300
C391	C39	0.303600	0.595400	0.153500
H141	H14	0.271300	0.531900	0.169000
C401	C40	0.354400	0.619600	0.297400
C411	C41	0.301500	0.629900	0.072600
C421	C42	0.472300	0.868700	0.079500
O301	O30	0.312100	0.532000	0.316200
C431	C43	0.406600	0.745900	0.186500
H151	H15	0.440500	0.786000	0.224600
C441	C44	0.409500	0.777300	0.105200
C451	C45	0.353900	0.655800	0.210400
Mn61	Mn6	0.108870	0.473420	0.932260
O311	O31	0.292800	0.524100	0.532400
O321	O32	0.290300	0.377400	0.454300
O331	O33	0.101900	0.322500	0.849400
O341	O34	0.996300	0.066800	0.632600
C461	C46	0.144000	0.281600	0.548700
H161	H16	0.142700	0.260900	0.494600
O351	O35	0.009400	0.119000	0.504600
C471	C47	0.264400	0.428200	0.515300
C481	C48	0.196400	0.404600	0.653500
H171	H17	0.228700	0.468100	0.669000
C491	C49	0.145600	0.380400	0.797400
C501	C50	0.198500	0.370100	0.572600
C511	C51	0.027700	0.131300	0.579500
O361	O36	0.187900	0.468000	0.816200
C521	C52	0.093400	0.254100	0.686500
H181	H18	0.059500	0.214000	0.724600
C531	C53	0.090500	0.222700	0.605200
C541	C54	0.146100	0.344200	0.710400
Mn71	Mn7	0.608870	0.026580	0.067740
O371	O37	0.792800	0.975900	0.467600
O381	O38	0.790300	0.122600	0.545700
O391	O39	0.601900	0.177500	0.150600
O401	O40	0.496300	0.433200	0.367400
C551	C55	0.644000	0.218400	0.451300
H191	H19	0.642700	0.239100	0.505400
O411	O41	0.509400	0.381000	0.495400
C561	C56	0.764400	0.071800	0.484700
C571	C57	0.696400	0.095400	0.346500
H201	H20	0.728700	0.031900	0.331000
C581	C58	0.645600	0.119600	0.202600
C591	C59	0.698500	0.129900	0.427400
C601	C60	0.527700	0.368700	0.420500
O421	O42	0.687900	0.032000	0.183800
C611	C61	0.593400	0.245900	0.313500
H211	H21	0.559500	0.286000	0.275400
C621	C62	0.590500	0.277300	0.394800
C631	C63	0.646100	0.155800	0.289600
Mn81	Mn8	0.891130	0.973420	0.567740
O431	O43	0.707200	0.024100	0.967600
O441	O44	0.709700	0.877400	0.045700
O451	O45	0.898100	0.822500	0.650600
O461	O46	0.003700	0.566800	0.867400
C641	C64	0.856000	0.781600	0.951300
H221	H22	0.857300	0.760900	0.005400
O471	O47	0.990600	0.619000	0.995400
C651	C65	0.735600	0.928200	0.984700
C661	C66	0.803600	0.904600	0.846500
H231	H23	0.771300	0.968100	0.831000
C671	C67	0.854400	0.880400	0.702600
C681	C68	0.801500	0.870100	0.927400
C691	C69	0.972300	0.631300	0.920500
O481	O48	0.812100	0.968000	0.683800
C701	C70	0.906600	0.754100	0.813500
H241	H24	0.940500	0.714000	0.775400
C711	C71	0.909500	0.722700	0.894800
C721	C72	0.853900	0.844200	0.789600
