data_WEYQAU01_clean_PM
_symmetry_space_group_name_H-M	'P1'
_cell_length_a	14.666600
_cell_length_b	12.395000
_cell_length_c	16.635100
_cell_angle_alpha	90.000000
_cell_angle_beta	90.000000
_cell_angle_gamma	90.000000
_symmetry_Int_Tables_number 1

loop_
_symmetry_equiv_pos_as_xyz
'x,y,z'

loop_
_atom_site_label
_atom_site_type_symbol
_atom_site_fract_x
_atom_site_fract_y
_atom_site_fract_z
Mn11	Mn1	0.605210	0.482110	0.578580
O11	O1	0.594550	0.345960	0.665850
O21	O2	0.674860	0.487980	0.701280
O31	O3	0.709050	0.479370	0.484120
O41	O4	0.698720	0.631140	0.551410
O51	O5	0.498600	0.579870	0.626310
O61	O6	0.523260	0.380120	0.502530
C11	C1	0.637270	0.399290	0.718070
C21	C2	0.642370	0.358060	0.802710
C31	C3	0.695620	0.411300	0.859500
C41	C4	0.593130	0.267010	0.825320
C51	C5	0.702870	0.371410	0.937580
C61	C6	0.596080	0.229660	0.904290
C71	C7	0.652380	0.280920	0.959740
C81	C8	0.768420	0.423280	0.995260
C91	C9	0.537160	0.136150	0.928660
Mn21	Mn2	0.894790	0.517890	0.078580
O71	O7	0.905450	0.654040	0.165850
O81	O8	0.825140	0.512020	0.201280
O91	O9	0.790950	0.520630	0.984120
O101	O10	0.801280	0.368860	0.051410
O111	O11	0.001400	0.420130	0.126310
O121	O12	0.976740	0.619880	0.002530
C101	C10	0.862730	0.600710	0.218070
C111	C11	0.857630	0.641940	0.302710
C121	C12	0.804380	0.588700	0.359500
C131	C13	0.906870	0.732990	0.325320
C141	C14	0.797130	0.628590	0.437580
C151	C15	0.903920	0.770340	0.404290
C161	C16	0.847620	0.719080	0.459740
C171	C17	0.731580	0.576720	0.495260
C181	C18	0.962840	0.863850	0.428660
Mn31	Mn3	0.394790	0.982110	0.921420
O131	O13	0.405450	0.845960	0.834150
O141	O14	0.325140	0.987980	0.798720
O151	O15	0.290950	0.979370	0.015880
O161	O16	0.301280	0.131140	0.948590
O171	O17	0.501400	0.079870	0.873690
O181	O18	0.476740	0.880120	0.997470
C191	C19	0.362730	0.899290	0.781930
C201	C20	0.357630	0.858060	0.697290
C211	C21	0.304380	0.911300	0.640500
C221	C22	0.406870	0.767010	0.674680
C231	C23	0.297130	0.871410	0.562420
C241	C24	0.403920	0.729660	0.595710
C251	C25	0.347620	0.780920	0.540260
C261	C26	0.231580	0.923280	0.504740
C271	C27	0.462840	0.636150	0.571340
Mn41	Mn4	0.105210	0.017890	0.421420
O191	O19	0.094550	0.154040	0.334150
O201	O20	0.174860	0.012020	0.298720
O211	O21	0.209050	0.020630	0.515880
O221	O22	0.198720	0.868860	0.448590
O231	O23	0.998600	0.920130	0.373690
O241	O24	0.023260	0.119880	0.497470
C281	C28	0.137270	0.100710	0.281930
C291	C29	0.142370	0.141940	0.197290
C301	C30	0.195620	0.088700	0.140500
C311	C31	0.093130	0.232990	0.174680
C321	C32	0.202870	0.128590	0.062420
C331	C33	0.096080	0.270340	0.095710
C341	C34	0.152380	0.219080	0.040260
C351	C35	0.268420	0.076720	0.004740
C361	C36	0.037160	0.363850	0.071340
Mn51	Mn5	0.394790	0.517890	0.421420
O251	O25	0.405450	0.654040	0.334150
O261	O26	0.325140	0.512020	0.298720
O271	O27	0.290950	0.520630	0.515880
O281	O28	0.301280	0.368860	0.448590
O291	O29	0.501400	0.420130	0.373690
O301	O30	0.476740	0.619880	0.497470
C371	C37	0.362730	0.600710	0.281930
C381	C38	0.357630	0.641940	0.197290
C391	C39	0.304380	0.588700	0.140500
C401	C40	0.406870	0.732990	0.174680
C411	C41	0.297130	0.628590	0.062420
C421	C42	0.403920	0.770340	0.095710
C431	C43	0.347620	0.719080	0.040260
C441	C44	0.231580	0.576720	0.004740
C451	C45	0.462840	0.863850	0.071340
Mn61	Mn6	0.105210	0.482110	0.921420
O311	O31	0.094550	0.345960	0.834150
O321	O32	0.174860	0.487980	0.798720
O331	O33	0.209050	0.479370	0.015880
O341	O34	0.198720	0.631140	0.948590
O351	O35	0.998600	0.579870	0.873690
O361	O36	0.023260	0.380120	0.997470
C461	C46	0.137270	0.399290	0.781930
C471	C47	0.142370	0.358060	0.697290
C481	C48	0.195620	0.411300	0.640500
C491	C49	0.093130	0.267010	0.674680
C501	C50	0.202870	0.371410	0.562420
C511	C51	0.096080	0.229660	0.595710
C521	C52	0.152380	0.280920	0.540260
C531	C53	0.268420	0.423280	0.504740
C541	C54	0.037160	0.136150	0.571340
Mn71	Mn7	0.605210	0.017890	0.078580
O371	O37	0.594550	0.154040	0.165850
O381	O38	0.674860	0.012020	0.201280
O391	O39	0.709050	0.020630	0.984120
O401	O40	0.698720	0.868860	0.051410
O411	O41	0.498600	0.920130	0.126310
O421	O42	0.523260	0.119880	0.002530
C551	C55	0.637270	0.100710	0.218070
C561	C56	0.642370	0.141940	0.302710
C571	C57	0.695620	0.088700	0.359500
C581	C58	0.593130	0.232990	0.325320
C591	C59	0.702870	0.128590	0.437580
C601	C60	0.596080	0.270340	0.404290
C611	C61	0.652380	0.219080	0.459740
C621	C62	0.768420	0.076720	0.495260
C631	C63	0.537160	0.363850	0.428660
Mn81	Mn8	0.894790	0.982110	0.578580
O431	O43	0.905450	0.845960	0.665850
O441	O44	0.825140	0.987980	0.701280
O451	O45	0.790950	0.979370	0.484120
O461	O46	0.801280	0.131140	0.551410
O471	O47	0.001400	0.079870	0.626310
O481	O48	0.976740	0.880120	0.502530
C641	C64	0.862730	0.899290	0.718070
C651	C65	0.857630	0.858060	0.802710
C661	C66	0.804380	0.911300	0.859500
C671	C67	0.906870	0.767010	0.825320
C681	C68	0.797130	0.871410	0.937580
C691	C69	0.903920	0.729660	0.904290
C701	C70	0.847620	0.780920	0.959740
C711	C71	0.731580	0.923280	0.995260
C721	C72	0.962840	0.636150	0.928660
