data_WEYQAU03_clean_PM
_symmetry_space_group_name_H-M	'P1'
_cell_length_a	14.928700
_cell_length_b	12.499000
_cell_length_c	16.581400
_cell_angle_alpha	90.000000
_cell_angle_beta	90.000000
_cell_angle_gamma	90.000000
_symmetry_Int_Tables_number 1

loop_
_symmetry_equiv_pos_as_xyz
'x,y,z'

loop_
_atom_site_label
_atom_site_type_symbol
_atom_site_fract_x
_atom_site_fract_y
_atom_site_fract_z
Mn11	Mn1	0.604100	0.485910	0.581430
O11	O1	0.791770	0.515800	0.988210
O21	O2	0.801540	0.365920	0.053580
O31	O3	0.592010	0.352450	0.670520
O41	O4	0.501450	0.085190	0.876350
C11	C1	0.652980	0.280800	0.963290
H11	H1	0.657600	0.253500	0.015300
O51	O5	0.527650	0.119210	0.005510
C21	C2	0.768540	0.420480	0.998810
C31	C3	0.694020	0.412140	0.863820
H21	H2	0.724500	0.474400	0.849800
C41	C4	0.634080	0.403940	0.722660
C51	C5	0.702630	0.370620	0.941500
C61	C6	0.538690	0.138500	0.931820
O61	O6	0.670590	0.491620	0.706150
C71	C7	0.592140	0.270780	0.829310
H31	H3	0.556600	0.236100	0.791400
C81	C8	0.596470	0.231620	0.907670
C91	C9	0.640230	0.361150	0.807070
Mn21	Mn2	0.895900	0.514090	0.081430
O71	O7	0.708230	0.484200	0.488210
O81	O8	0.698460	0.634080	0.553580
O91	O9	0.907990	0.647550	0.170520
O101	O10	0.998550	0.914810	0.376350
C101	C10	0.847020	0.719200	0.463290
H41	H4	0.842400	0.746500	0.515300
O111	O11	0.972350	0.880790	0.505510
C111	C11	0.731460	0.579520	0.498810
C121	C12	0.805980	0.587860	0.363820
H51	H5	0.775500	0.525600	0.349800
C131	C13	0.865920	0.596060	0.222660
C141	C14	0.797370	0.629380	0.441500
C151	C15	0.961310	0.861500	0.431820
O121	O12	0.829410	0.508380	0.206150
C161	C16	0.907860	0.729220	0.329310
H61	H6	0.943400	0.763900	0.291400
C171	C17	0.903530	0.768380	0.407670
C181	C18	0.859770	0.638850	0.307070
Mn31	Mn3	0.395900	0.985910	0.918570
O131	O13	0.208230	0.015800	0.511790
O141	O14	0.198460	0.865920	0.446420
O151	O15	0.407990	0.852450	0.829480
O161	O16	0.498550	0.585190	0.623650
C191	C19	0.347020	0.780800	0.536710
H71	H7	0.342400	0.753500	0.484700
O171	O17	0.472350	0.619210	0.494490
C201	C20	0.231460	0.920480	0.501190
C211	C21	0.305980	0.912140	0.636180
H81	H8	0.275500	0.974400	0.650200
C221	C22	0.365920	0.903940	0.777340
C231	C23	0.297370	0.870620	0.558500
C241	C24	0.461310	0.638500	0.568180
O181	O18	0.329410	0.991620	0.793850
C251	C25	0.407860	0.770780	0.670690
H91	H9	0.443400	0.736100	0.708600
C261	C26	0.403530	0.731620	0.592330
C271	C27	0.359770	0.861150	0.692930
Mn41	Mn4	0.104100	0.014090	0.418570
O191	O19	0.291770	0.984200	0.011790
O201	O20	0.301540	0.134080	0.946420
O211	O21	0.092010	0.147550	0.329480
O221	O22	0.001450	0.414810	0.123650
C281	C28	0.152980	0.219200	0.036710
H101	H10	0.157600	0.246500	0.984700
O231	O23	0.027650	0.380790	0.994490
C291	C29	0.268540	0.079520	0.001190
C301	C30	0.194020	0.087860	0.136180
H111	H11	0.224500	0.025600	0.150200
C311	C31	0.134080	0.096060	0.277340
C321	C32	0.202630	0.129380	0.058500
C331	C33	0.038690	0.361500	0.068180
O241	O24	0.170590	0.008380	0.293850
C341	C34	0.092140	0.229220	0.170690
H121	H12	0.056600	0.263900	0.208600
C351	C35	0.096470	0.268380	0.092330
C361	C36	0.140230	0.138850	0.192930
Mn51	Mn5	0.395900	0.514090	0.418570
O251	O25	0.208230	0.484200	0.011790
O261	O26	0.198460	0.634080	0.946420
O271	O27	0.407990	0.647550	0.329480
O281	O28	0.498550	0.914810	0.123650
C371	C37	0.347020	0.719200	0.036710
H131	H13	0.342400	0.746500	0.984700
O291	O29	0.472350	0.880790	0.994490
C381	C38	0.231460	0.579520	0.001190
C391	C39	0.305980	0.587860	0.136180
H141	H14	0.275500	0.525600	0.150200
C401	C40	0.365920	0.596060	0.277340
C411	C41	0.297370	0.629380	0.058500
C421	C42	0.461310	0.861500	0.068180
O301	O30	0.329410	0.508380	0.293850
C431	C43	0.407860	0.729220	0.170690
H151	H15	0.443400	0.763900	0.208600
C441	C44	0.403530	0.768380	0.092330
C451	C45	0.359770	0.638850	0.192930
Mn61	Mn6	0.104100	0.485910	0.918570
O311	O31	0.291770	0.515800	0.511790
O321	O32	0.301540	0.365920	0.446420
O331	O33	0.092010	0.352450	0.829480
O341	O34	0.001450	0.085190	0.623650
C461	C46	0.152980	0.280800	0.536710
H161	H16	0.157600	0.253500	0.484700
O351	O35	0.027650	0.119210	0.494490
C471	C47	0.268540	0.420480	0.501190
C481	C48	0.194020	0.412140	0.636180
H171	H17	0.224500	0.474400	0.650200
C491	C49	0.134080	0.403940	0.777340
C501	C50	0.202630	0.370620	0.558500
C511	C51	0.038690	0.138500	0.568180
O361	O36	0.170590	0.491620	0.793850
C521	C52	0.092140	0.270780	0.670690
H181	H18	0.056600	0.236100	0.708600
C531	C53	0.096470	0.231620	0.592330
C541	C54	0.140230	0.361150	0.692930
Mn71	Mn7	0.604100	0.014090	0.081430
O371	O37	0.791770	0.984200	0.488210
O381	O38	0.801540	0.134080	0.553580
O391	O39	0.592010	0.147550	0.170520
O401	O40	0.501450	0.414810	0.376350
C551	C55	0.652980	0.219200	0.463290
H191	H19	0.657600	0.246500	0.515300
O411	O41	0.527650	0.380790	0.505510
C561	C56	0.768540	0.079520	0.498810
C571	C57	0.694020	0.087860	0.363820
H201	H20	0.724500	0.025600	0.349800
C581	C58	0.634080	0.096060	0.222660
C591	C59	0.702630	0.129380	0.441500
C601	C60	0.538690	0.361500	0.431820
O421	O42	0.670590	0.008380	0.206150
C611	C61	0.592140	0.229220	0.329310
H211	H21	0.556600	0.263900	0.291400
C621	C62	0.596470	0.268380	0.407670
C631	C63	0.640230	0.138850	0.307070
Mn81	Mn8	0.895900	0.985910	0.581430
O431	O43	0.708230	0.015800	0.988210
O441	O44	0.698460	0.865920	0.053580
O451	O45	0.907990	0.852450	0.670520
O461	O46	0.998550	0.585190	0.876350
C641	C64	0.847020	0.780800	0.963290
H221	H22	0.842400	0.753500	0.015300
O471	O47	0.972350	0.619210	0.005510
C651	C65	0.731460	0.920480	0.998810
C661	C66	0.805980	0.912140	0.863820
H231	H23	0.775500	0.974400	0.849800
C671	C67	0.865920	0.903940	0.722660
C681	C68	0.797370	0.870620	0.941500
C691	C69	0.961310	0.638500	0.931820
O481	O48	0.829410	0.991620	0.706150
C701	C70	0.907860	0.770780	0.829310
H241	H24	0.943400	0.736100	0.791400
C711	C71	0.903530	0.731620	0.907670
C721	C72	0.859770	0.861150	0.807070
