data_WEZCIO_clean_PM
_symmetry_space_group_name_H-M	'P1'
_cell_length_a	15.179700
_cell_length_b	15.309000
_cell_length_c	15.309000
_cell_angle_alpha	120.000000
_cell_angle_beta	90.000000
_cell_angle_gamma	90.000000
_symmetry_Int_Tables_number 1

loop_
_symmetry_equiv_pos_as_xyz
'x,y,z'

loop_
_atom_site_label
_atom_site_type_symbol
_atom_site_fract_x
_atom_site_fract_y
_atom_site_fract_z
La11	La1	0.750000	0.666670	0.333340
La21	La2	0.750000	0.333330	0.666660
La31	La3	0.250000	0.333330	0.666660
La41	La4	0.250000	0.666670	0.333340
Co11	Co1	0.000000	0.500000	0.000000
Co21	Co2	0.000000	0.500000	0.500000
Co31	Co3	0.000000	0.000000	0.500000
Co41	Co4	0.500000	0.500000	0.000000
Co51	Co5	0.500000	0.000000	0.500000
Co61	Co6	0.500000	0.500000	0.500000
H11	H1	0.835300	0.789400	0.153700
H21	H2	0.760800	0.712600	0.089600
H31	H3	0.835300	0.364300	0.210600
H41	H4	0.760800	0.377000	0.287400
H51	H5	0.835300	0.846300	0.635700
H61	H6	0.760800	0.910400	0.623000
H71	H7	0.835300	0.210600	0.846300
H81	H8	0.760800	0.287400	0.910400
H91	H9	0.835300	0.635700	0.789400
H101	H10	0.760800	0.623000	0.712600
H111	H11	0.835300	0.153700	0.364300
H121	H12	0.760800	0.089600	0.377000
H131	H13	0.664700	0.635700	0.846300
H141	H14	0.739200	0.623000	0.910400
H151	H15	0.664700	0.153700	0.789400
H161	H16	0.739200	0.089600	0.712600
H171	H17	0.664700	0.210600	0.364300
H181	H18	0.739200	0.287400	0.377000
H191	H19	0.664700	0.364300	0.153700
H201	H20	0.739200	0.377000	0.089600
H211	H21	0.664700	0.846300	0.210600
H221	H22	0.739200	0.910400	0.287400
H231	H23	0.664700	0.789400	0.635700
H241	H24	0.739200	0.712600	0.623000
H251	H25	0.164700	0.210600	0.846300
H261	H26	0.239200	0.287400	0.910400
H271	H27	0.164700	0.635700	0.789400
H281	H28	0.239200	0.623000	0.712600
H291	H29	0.164700	0.153700	0.364300
H301	H30	0.239200	0.089600	0.377000
H311	H31	0.164700	0.789400	0.153700
H321	H32	0.239200	0.712600	0.089600
H331	H33	0.164700	0.364300	0.210600
H341	H34	0.239200	0.377000	0.287400
H351	H35	0.164700	0.846300	0.635700
H361	H36	0.239200	0.910400	0.623000
H371	H37	0.335300	0.364300	0.153700
H381	H38	0.260800	0.377000	0.089600
H391	H39	0.335300	0.846300	0.210600
H401	H40	0.260800	0.910400	0.287400
H411	H41	0.335300	0.789400	0.635700
H421	H42	0.260800	0.712600	0.623000
H431	H43	0.335300	0.635700	0.846300
H441	H44	0.260800	0.623000	0.910400
H451	H45	0.335300	0.153700	0.789400
H461	H46	0.260800	0.089600	0.712600
H471	H47	0.335300	0.210600	0.364300
H481	H48	0.260800	0.287400	0.377000
C11	C1	0.858700	0.647600	0.128800
C21	C2	0.800000	0.733500	0.146800
C31	C3	0.858700	0.481200	0.352400
C41	C4	0.800000	0.413300	0.266500
C51	C5	0.858700	0.871200	0.518800
C61	C6	0.800000	0.853200	0.586700
C71	C7	0.858700	0.352400	0.871200
C81	C8	0.800000	0.266500	0.853200
C91	C9	0.858700	0.518800	0.647600
C101	C10	0.800000	0.586700	0.733500
C111	C11	0.858700	0.128800	0.481200
C121	C12	0.800000	0.146800	0.413300
C131	C13	0.641300	0.518800	0.871200
C141	C14	0.700000	0.586700	0.853200
C151	C15	0.641300	0.128800	0.647600
C161	C16	0.700000	0.146800	0.733500
C171	C17	0.641300	0.352400	0.481200
C181	C18	0.700000	0.266500	0.413300
C191	C19	0.641300	0.481200	0.128800
C201	C20	0.700000	0.413300	0.146800
C211	C21	0.641300	0.871200	0.352400
C221	C22	0.700000	0.853200	0.266500
C231	C23	0.641300	0.647600	0.518800
C241	C24	0.700000	0.733500	0.586700
C251	C25	0.141300	0.352400	0.871200
C261	C26	0.200000	0.266500	0.853200
C271	C27	0.141300	0.518800	0.647600
C281	C28	0.200000	0.586700	0.733500
C291	C29	0.141300	0.128800	0.481200
C301	C30	0.200000	0.146800	0.413300
C311	C31	0.141300	0.647600	0.128800
C321	C32	0.200000	0.733500	0.146800
C331	C33	0.141300	0.481200	0.352400
C341	C34	0.200000	0.413300	0.266500
C351	C35	0.141300	0.871200	0.518800
C361	C36	0.200000	0.853200	0.586700
C371	C37	0.358700	0.481200	0.128800
C381	C38	0.300000	0.413300	0.146800
C391	C39	0.358700	0.871200	0.352400
C401	C40	0.300000	0.853200	0.266500
C411	C41	0.358700	0.647600	0.518800
C421	C42	0.300000	0.733500	0.586700
C431	C43	0.358700	0.518800	0.871200
C441	C44	0.300000	0.586700	0.853200
C451	C45	0.358700	0.128800	0.647600
C461	C46	0.300000	0.146800	0.733500
C471	C47	0.358700	0.352400	0.481200
C481	C48	0.300000	0.266500	0.413300
O11	O1	0.904600	0.611600	0.051700
O21	O2	0.858200	0.618800	0.193100
O31	O3	0.904600	0.440100	0.388400
O41	O4	0.858200	0.574300	0.381200
O51	O5	0.904600	0.948300	0.559900
O61	O6	0.858200	0.806900	0.425700
O71	O7	0.904600	0.388400	0.948300
O81	O8	0.858200	0.381200	0.806900
O91	O9	0.904600	0.559900	0.611600
O101	O10	0.858200	0.425700	0.618800
O111	O11	0.904600	0.051700	0.440100
O121	O12	0.858200	0.193100	0.574300
O131	O13	0.595400	0.559900	0.948300
O141	O14	0.641800	0.425700	0.806900
O151	O15	0.595400	0.051700	0.611600
O161	O16	0.641800	0.193100	0.618800
O171	O17	0.595400	0.388400	0.440100
O181	O18	0.641800	0.381200	0.574300
O191	O19	0.595400	0.440100	0.051700
O201	O20	0.641800	0.574300	0.193100
O211	O21	0.595400	0.948300	0.388400
O221	O22	0.641800	0.806900	0.381200
O231	O23	0.595400	0.611600	0.559900
O241	O24	0.641800	0.618800	0.425700
O251	O25	0.095400	0.388400	0.948300
O261	O26	0.141800	0.381200	0.806900
O271	O27	0.095400	0.559900	0.611600
O281	O28	0.141800	0.425700	0.618800
O291	O29	0.095400	0.051700	0.440100
O301	O30	0.141800	0.193100	0.574300
O311	O31	0.095400	0.611600	0.051700
O321	O32	0.141800	0.618800	0.193100
O331	O33	0.095400	0.440100	0.388400
O341	O34	0.141800	0.574300	0.381200
O351	O35	0.095400	0.948300	0.559900
O361	O36	0.141800	0.806900	0.425700
O371	O37	0.404600	0.440100	0.051700
O381	O38	0.358200	0.574300	0.193100
O391	O39	0.404600	0.948300	0.388400
O401	O40	0.358200	0.806900	0.381200
O411	O41	0.404600	0.611600	0.559900
O421	O42	0.358200	0.618800	0.425700
O431	O43	0.404600	0.559900	0.948300
O441	O44	0.358200	0.425700	0.806900
O451	O45	0.404600	0.051700	0.611600
O461	O46	0.358200	0.193100	0.618800
O471	O47	0.404600	0.388400	0.440100
O481	O48	0.358200	0.381200	0.574300
O491	O49	0.750000	0.764550	0.235450
O501	O50	0.750000	0.470900	0.235450
O511	O51	0.750000	0.764550	0.529100
O521	O52	0.750000	0.235450	0.764550
O531	O53	0.750000	0.529100	0.764550
O541	O54	0.750000	0.235450	0.470900
O551	O55	0.250000	0.235450	0.764550
O561	O56	0.250000	0.529100	0.764550
O571	O57	0.250000	0.235450	0.470900
O581	O58	0.250000	0.764550	0.235450
O591	O59	0.250000	0.470900	0.235450
O601	O60	0.250000	0.764550	0.529100
