data_WICQOP_clean_PM
_symmetry_space_group_name_H-M	'P1'
_cell_length_a	24.000000
_cell_length_b	15.522000
_cell_length_c	16.523000
_cell_angle_alpha	90.000000
_cell_angle_beta	133.517000
_cell_angle_gamma	90.000000
_symmetry_Int_Tables_number 1

loop_
_symmetry_equiv_pos_as_xyz
'x,y,z'

loop_
_atom_site_label
_atom_site_type_symbol
_atom_site_fract_x
_atom_site_fract_y
_atom_site_fract_z
Co11	Co1	0.740900	0.991340	0.001120
Co21	Co2	0.828740	0.498980	0.586710
N11	N1	0.712900	0.920000	0.867600
N21	N2	0.755600	0.599200	0.565800
N31	N3	0.634800	0.769600	0.597400
H11	H1	0.584200	0.773000	0.546000
N41	N4	0.670300	0.096900	0.893500
N51	N5	0.340100	0.440700	0.556200
N61	N6	0.542500	0.309500	0.690100
H21	H2	0.556000	0.335000	0.657000
N71	N7	0.813700	0.892500	0.123100
N81	N8	0.865800	0.581800	0.527600
N91	N9	0.940200	0.736000	0.407800
H31	H3	0.990300	0.737000	0.450000
N101	N10	0.900400	0.396400	0.615300
N111	N11	0.232400	0.064000	0.936100
N121	N12	0.031200	0.186600	0.659100
H41	H4	0.004000	0.161000	0.593000
C11	C1	0.758300	0.860900	0.879000
H51	H5	0.807600	0.854100	0.949100
C21	C2	0.736600	0.808900	0.792600
H61	H6	0.770200	0.768000	0.805100
C31	C3	0.663500	0.819400	0.687100
C41	C4	0.616300	0.883100	0.674000
H71	H7	0.567600	0.893500	0.604300
C51	C5	0.642600	0.929600	0.765100
H81	H8	0.609900	0.970200	0.755300
C61	C6	0.787100	0.673200	0.623100
H91	H9	0.836700	0.686000	0.655800
C71	C7	0.750700	0.731300	0.636500
H101	H10	0.775500	0.781300	0.677900
C81	C8	0.675300	0.713400	0.586200
C91	C9	0.639700	0.639800	0.521600
H111	H11	0.589100	0.627100	0.484300
C101	C10	0.681800	0.586300	0.514600
H121	H12	0.657500	0.537100	0.470900
C111	C11	0.688000	0.143600	0.845500
H131	H13	0.730600	0.127300	0.857800
C121	C12	0.646700	0.213900	0.779300
H141	H14	0.661500	0.244600	0.748300
C131	C13	0.581900	0.238900	0.758900
C141	C14	0.562500	0.191100	0.807200
H151	H15	0.519900	0.205500	0.795800
C151	C15	0.608000	0.121300	0.872600
H161	H16	0.594400	0.089200	0.904300
C161	C16	0.373800	0.384800	0.640500
H171	H17	0.350300	0.375400	0.666800
C171	C17	0.441400	0.339600	0.692000
H181	H18	0.463300	0.303800	0.752700
C181	C18	0.475600	0.349600	0.649200
C191	C19	0.441700	0.408500	0.562700
H191	H19	0.463400	0.419300	0.533900
C201	C20	0.375500	0.450600	0.519900
H201	H20	0.353700	0.488800	0.461400
C211	C21	0.889300	0.901800	0.209200
H211	H21	0.914400	0.944400	0.204800
C221	C22	0.932700	0.851500	0.304700
H221	H22	0.985300	0.860600	0.362500
C231	C23	0.896200	0.786800	0.312900
C241	C24	0.818100	0.774100	0.221900
H231	H23	0.792000	0.730600	0.223000
C251	C25	0.780200	0.826400	0.130600
H241	H24	0.728200	0.816100	0.069700
C261	C26	0.822800	0.647900	0.458000
H251	H25	0.775700	0.657900	0.435800
C271	C27	0.844800	0.701200	0.418200
H261	H26	0.813900	0.747600	0.373000
C281	C28	0.913700	0.686100	0.445300
C291	C29	0.961100	0.620600	0.522900
H271	H27	0.009200	0.610200	0.548600
C301	C30	0.934700	0.572000	0.560000
H281	H28	0.966800	0.528900	0.611700
C311	C31	0.953800	0.359000	0.714200
H291	H29	0.961400	0.380700	0.773700
C321	C32	0.998500	0.290500	0.735000
H301	H30	0.033900	0.266500	0.806100
C331	C33	0.990800	0.257500	0.650500
C341	C34	0.934500	0.295200	0.545000
H311	H31	0.925700	0.274300	0.484300
C351	C35	0.892700	0.362700	0.532100
H321	H32	0.856500	0.387400	0.461600
C361	C36	0.216500	0.145600	0.942900
H331	H33	0.252100	0.173600	0.011300
C371	C37	0.151600	0.190300	0.856400
H341	H34	0.143600	0.246400	0.866200
C381	C38	0.098900	0.149900	0.754500
C391	C39	0.116700	0.066800	0.744600
H351	H35	0.083600	0.038300	0.676400
C401	C40	0.182600	0.028400	0.835300
H361	H36	0.193600	0.973700	0.826400
Co31	Co3	0.240900	0.508660	0.501120
Co41	Co4	0.328740	0.001020	0.086710
N131	N13	0.212900	0.580000	0.367600
N141	N14	0.255600	0.900800	0.065800
N151	N15	0.134800	0.730400	0.097400
H371	H37	0.084200	0.727000	0.046000
N161	N16	0.170300	0.403100	0.393500
N171	N17	0.840100	0.059300	0.056200
N181	N18	0.042500	0.190500	0.190100
H381	H38	0.056000	0.165000	0.157000
N191	N19	0.313700	0.607500	0.623100
N201	N20	0.365800	0.918200	0.027600
N211	N21	0.440200	0.764000	0.907800
H391	H39	0.490300	0.763000	0.950000
N221	N22	0.400400	0.103600	0.115300
N231	N23	0.732400	0.436000	0.436100
N241	N24	0.531200	0.313400	0.159100
H401	H40	0.504000	0.339000	0.093000
C411	C41	0.258300	0.639100	0.379000
H411	H41	0.307600	0.645900	0.449100
C421	C42	0.236600	0.691100	0.292600
H421	H42	0.270200	0.732000	0.305100
C431	C43	0.163500	0.680600	0.187100
C441	C44	0.116300	0.616900	0.174000
H431	H43	0.067600	0.606500	0.104300
C451	C45	0.142600	0.570400	0.265100
H441	H44	0.109900	0.529800	0.255300
C461	C46	0.287100	0.826800	0.123100
H451	H45	0.336700	0.814000	0.155800
C471	C47	0.250700	0.768700	0.136500
H461	H46	0.275500	0.718700	0.177900
C481	C48	0.175300	0.786600	0.086200
C491	C49	0.139700	0.860200	0.021600
H471	H47	0.089100	0.872900	0.984300
C501	C50	0.181800	0.913700	0.014600
H481	H48	0.157500	0.962900	0.970900
C511	C51	0.188000	0.356400	0.345500
H491	H49	0.230600	0.372700	0.357800
C521	C52	0.146700	0.286100	0.279300
H501	H50	0.161500	0.255400	0.248300
C531	C53	0.081900	0.261100	0.258900
C541	C54	0.062500	0.308900	0.307200
H511	H51	0.019900	0.294500	0.295800
C551	C55	0.108000	0.378700	0.372600
H521	H52	0.094400	0.410800	0.404300
C561	C56	0.873800	0.115200	0.140500
H531	H53	0.850300	0.124600	0.166800
C571	C57	0.941400	0.160400	0.192000
H541	H54	0.963300	0.196200	0.252700
C581	C58	0.975600	0.150400	0.149200
C591	C59	0.941700	0.091500	0.062700
H551	H55	0.963400	0.080700	0.033900
C601	C60	0.875500	0.049400	0.019900
H561	H56	0.853700	0.011200	0.961400
C611	C61	0.389300	0.598200	0.709200
H571	H57	0.414400	0.555600	0.704800
C621	C62	0.432700	0.648500	0.804700
H581	H58	0.485300	0.639400	0.862500
C631	C63	0.396200	0.713200	0.812900
C641	C64	0.318100	0.725900	0.721900
H591	H59	0.292000	0.769400	0.723000
C651	C65	0.280200	0.673600	0.630600
H601	H60	0.228200	0.683900	0.569700
C661	C66	0.322800	0.852100	0.958000
H611	H61	0.275700	0.842100	0.935800
C671	C67	0.344800	0.798800	0.918200
H621	H62	0.313900	0.752400	0.873000
C681	C68	0.413700	0.813900	0.945300
C691	C69	0.461100	0.879400	0.022900
H631	H63	0.509200	0.889800	0.048600
C701	C70	0.434700	0.928000	0.060000
H641	H64	0.466800	0.971100	0.111700
C711	C71	0.453800	0.141000	0.214200
H651	H65	0.461400	0.119300	0.273700
C721	C72	0.498500	0.209500	0.235000
H661	H66	0.533900	0.233500	0.306100
C731	C73	0.490800	0.242500	0.150500
C741	C74	0.434500	0.204800	0.045000
H671	H67	0.425700	0.225700	0.984300
C751	C75	0.392700	0.137300	0.032100
H681	H68	0.356500	0.112600	0.961600
C761	C76	0.716500	0.354400	0.442900
H691	H69	0.752100	0.326400	0.511300
C771	C77	0.651600	0.309700	0.356400
H701	H70	0.643600	0.253600	0.366200
C781	C78	0.598900	0.350100	0.254500
C791	C79	0.616700	0.433200	0.244600
H711	H71	0.583600	0.461700	0.176400
C801	C80	0.682600	0.471600	0.335300
H721	H72	0.693600	0.526300	0.326400
Co51	Co5	0.240900	0.491340	0.001120
Co61	Co6	0.328740	0.998980	0.586710
N251	N25	0.212900	0.420000	0.867600
N261	N26	0.255600	0.099200	0.565800
N271	N27	0.134800	0.269600	0.597400
H731	H73	0.084200	0.273000	0.546000
N281	N28	0.170300	0.596900	0.893500
N291	N29	0.840100	0.940700	0.556200
N301	N30	0.042500	0.809500	0.690100
H741	H74	0.056000	0.835000	0.657000
N311	N31	0.313700	0.392500	0.123100
N321	N32	0.365800	0.081800	0.527600
N331	N33	0.440200	0.236000	0.407800
H751	H75	0.490300	0.237000	0.450000
N341	N34	0.400400	0.896400	0.615300
N351	N35	0.732400	0.564000	0.936100
N361	N36	0.531200	0.686600	0.659100
H761	H76	0.504000	0.661000	0.593000
C811	C81	0.258300	0.360900	0.879000
H771	H77	0.307600	0.354100	0.949100
C821	C82	0.236600	0.308900	0.792600
H781	H78	0.270200	0.268000	0.805100
C831	C83	0.163500	0.319400	0.687100
C841	C84	0.116300	0.383100	0.674000
H791	H79	0.067600	0.393500	0.604300
C851	C85	0.142600	0.429600	0.765100
H801	H80	0.109900	0.470200	0.755300
C861	C86	0.287100	0.173200	0.623100
H811	H81	0.336700	0.186000	0.655800
C871	C87	0.250700	0.231300	0.636500
H821	H82	0.275500	0.281300	0.677900
C881	C88	0.175300	0.213400	0.586200
C891	C89	0.139700	0.139800	0.521600
H831	H83	0.089100	0.127100	0.484300
C901	C90	0.181800	0.086300	0.514600
H841	H84	0.157500	0.037100	0.470900
C911	C91	0.188000	0.643600	0.845500
H851	H85	0.230600	0.627300	0.857800
C921	C92	0.146700	0.713900	0.779300
H861	H86	0.161500	0.744600	0.748300
C931	C93	0.081900	0.738900	0.758900
C941	C94	0.062500	0.691100	0.807200
H871	H87	0.019900	0.705500	0.795800
C951	C95	0.108000	0.621300	0.872600
H881	H88	0.094400	0.589200	0.904300
C961	C96	0.873800	0.884800	0.640500
H891	H89	0.850300	0.875400	0.666800
C971	C97	0.941400	0.839600	0.692000
H901	H90	0.963300	0.803800	0.752700
C981	C98	0.975600	0.849600	0.649200
C991	C99	0.941700	0.908500	0.562700
H911	H91	0.963400	0.919300	0.533900
C1001	C100	0.875500	0.950600	0.519900
H921	H92	0.853700	0.988800	0.461400
C1011	C101	0.389300	0.401800	0.209200
H931	H93	0.414400	0.444400	0.204800
C1021	C102	0.432700	0.351500	0.304700
H941	H94	0.485300	0.360600	0.362500
C1031	C103	0.396200	0.286800	0.312900
C1041	C104	0.318100	0.274100	0.221900
H951	H95	0.292000	0.230600	0.223000
C1051	C105	0.280200	0.326400	0.130600
H961	H96	0.228200	0.316100	0.069700
C1061	C106	0.322800	0.147900	0.458000
H971	H97	0.275700	0.157900	0.435800
C1071	C107	0.344800	0.201200	0.418200
H981	H98	0.313900	0.247600	0.373000
C1081	C108	0.413700	0.186100	0.445300
C1091	C109	0.461100	0.120600	0.522900
H991	H99	0.509200	0.110200	0.548600
C1101	C110	0.434700	0.072000	0.560000
H1001	H100	0.466800	0.028900	0.611700
C1111	C111	0.453800	0.859000	0.714200
H1011	H101	0.461400	0.880700	0.773700
C1121	C112	0.498500	0.790500	0.735000
H1021	H102	0.533900	0.766500	0.806100
C1131	C113	0.490800	0.757500	0.650500
C1141	C114	0.434500	0.795200	0.545000
H1031	H103	0.425700	0.774300	0.484300
C1151	C115	0.392700	0.862700	0.532100
H1041	H104	0.356500	0.887400	0.461600
C1161	C116	0.716500	0.645600	0.942900
H1051	H105	0.752100	0.673600	0.011300
C1171	C117	0.651600	0.690300	0.856400
H1061	H106	0.643600	0.746400	0.866200
C1181	C118	0.598900	0.649900	0.754500
C1191	C119	0.616700	0.566800	0.744600
H1071	H107	0.583600	0.538300	0.676400
C1201	C120	0.682600	0.528400	0.835300
H1081	H108	0.693600	0.473700	0.826400
Co71	Co7	0.740900	0.008660	0.501120
Co81	Co8	0.828740	0.501020	0.086710
N371	N37	0.712900	0.080000	0.367600
N381	N38	0.755600	0.400800	0.065800
N391	N39	0.634800	0.230400	0.097400
H1091	H109	0.584200	0.227000	0.046000
N401	N40	0.670300	0.903100	0.393500
N411	N41	0.340100	0.559300	0.056200
N421	N42	0.542500	0.690500	0.190100
H1101	H110	0.556000	0.665000	0.157000
N431	N43	0.813700	0.107500	0.623100
N441	N44	0.865800	0.418200	0.027600
N451	N45	0.940200	0.264000	0.907800
H1111	H111	0.990300	0.263000	0.950000
N461	N46	0.900400	0.603600	0.115300
N471	N47	0.232400	0.936000	0.436100
N481	N48	0.031200	0.813400	0.159100
H1121	H112	0.004000	0.839000	0.093000
C1211	C121	0.758300	0.139100	0.379000
H1131	H113	0.807600	0.145900	0.449100
C1221	C122	0.736600	0.191100	0.292600
H1141	H114	0.770200	0.232000	0.305100
C1231	C123	0.663500	0.180600	0.187100
C1241	C124	0.616300	0.116900	0.174000
H1151	H115	0.567600	0.106500	0.104300
C1251	C125	0.642600	0.070400	0.265100
H1161	H116	0.609900	0.029800	0.255300
C1261	C126	0.787100	0.326800	0.123100
H1171	H117	0.836700	0.314000	0.155800
C1271	C127	0.750700	0.268700	0.136500
H1181	H118	0.775500	0.218700	0.177900
C1281	C128	0.675300	0.286600	0.086200
C1291	C129	0.639700	0.360200	0.021600
H1191	H119	0.589100	0.372900	0.984300
C1301	C130	0.681800	0.413700	0.014600
H1201	H120	0.657500	0.462900	0.970900
C1311	C131	0.688000	0.856400	0.345500
H1211	H121	0.730600	0.872700	0.357800
C1321	C132	0.646700	0.786100	0.279300
H1221	H122	0.661500	0.755400	0.248300
C1331	C133	0.581900	0.761100	0.258900
C1341	C134	0.562500	0.808900	0.307200
H1231	H123	0.519900	0.794500	0.295800
C1351	C135	0.608000	0.878700	0.372600
H1241	H124	0.594400	0.910800	0.404300
C1361	C136	0.373800	0.615200	0.140500
H1251	H125	0.350300	0.624600	0.166800
C1371	C137	0.441400	0.660400	0.192000
H1261	H126	0.463300	0.696200	0.252700
C1381	C138	0.475600	0.650400	0.149200
C1391	C139	0.441700	0.591500	0.062700
H1271	H127	0.463400	0.580700	0.033900
C1401	C140	0.375500	0.549400	0.019900
H1281	H128	0.353700	0.511200	0.961400
C1411	C141	0.889300	0.098200	0.709200
H1291	H129	0.914400	0.055600	0.704800
C1421	C142	0.932700	0.148500	0.804700
H1301	H130	0.985300	0.139400	0.862500
C1431	C143	0.896200	0.213200	0.812900
C1441	C144	0.818100	0.225900	0.721900
H1311	H131	0.792000	0.269400	0.723000
C1451	C145	0.780200	0.173600	0.630600
H1321	H132	0.728200	0.183900	0.569700
C1461	C146	0.822800	0.352100	0.958000
H1331	H133	0.775700	0.342100	0.935800
C1471	C147	0.844800	0.298800	0.918200
H1341	H134	0.813900	0.252400	0.873000
C1481	C148	0.913700	0.313900	0.945300
C1491	C149	0.961100	0.379400	0.022900
H1351	H135	0.009200	0.389800	0.048600
C1501	C150	0.934700	0.428000	0.060000
H1361	H136	0.966800	0.471100	0.111700
C1511	C151	0.953800	0.641000	0.214200
H1371	H137	0.961400	0.619300	0.273700
C1521	C152	0.998500	0.709500	0.235000
H1381	H138	0.033900	0.733500	0.306100
C1531	C153	0.990800	0.742500	0.150500
C1541	C154	0.934500	0.704800	0.045000
H1391	H139	0.925700	0.725700	0.984300
C1551	C155	0.892700	0.637300	0.032100
H1401	H140	0.856500	0.612600	0.961600
C1561	C156	0.216500	0.854400	0.442900
H1411	H141	0.252100	0.826400	0.511300
C1571	C157	0.151600	0.809700	0.356400
H1421	H142	0.143600	0.753600	0.366200
C1581	C158	0.098900	0.850100	0.254500
C1591	C159	0.116700	0.933200	0.244600
H1431	H143	0.083600	0.961700	0.176400
C1601	C160	0.182600	0.971600	0.335300
H1441	H144	0.193600	0.026300	0.326400
