data_WICQIJ_clean_PM
_symmetry_space_group_name_H-M	'P1'
_cell_length_a	15.164000
_cell_length_b	16.992000
_cell_length_c	17.489000
_cell_angle_alpha	90.000000
_cell_angle_beta	90.000000
_cell_angle_gamma	90.000000
_symmetry_Int_Tables_number 1

loop_
_symmetry_equiv_pos_as_xyz
'x,y,z'

loop_
_atom_site_label
_atom_site_type_symbol
_atom_site_fract_x
_atom_site_fract_y
_atom_site_fract_z
Co11	Co1	0.986960	0.817160	0.548160
Co21	Co2	0.513040	0.317160	0.451840
Co31	Co3	0.986960	0.317160	0.951840
Co41	Co4	0.513040	0.817160	0.048160
H11	H1	0.798000	0.497000	0.701400
H21	H2	0.177000	0.653000	0.239000
H31	H3	0.550100	0.361400	0.626600
H41	H4	0.644800	0.438600	0.695800
H51	H5	0.801900	0.448900	0.511000
H61	H6	0.701100	0.372600	0.447400
H71	H7	0.951600	0.716200	0.687300
H81	H8	0.887300	0.601600	0.726100
H91	H9	0.779500	0.580800	0.516700
H101	H10	0.848200	0.696700	0.484600
H111	H11	0.400900	0.672400	0.080700
H121	H12	0.294800	0.623800	0.159600
H131	H13	0.288100	0.834100	0.265500
H141	H14	0.397900	0.874200	0.185300
H151	H15	0.164500	0.828900	0.474300
H161	H16	0.247400	0.795300	0.371200
H171	H17	0.052000	0.649400	0.306900
H181	H18	0.975200	0.689900	0.411600
H191	H19	0.702000	0.997000	0.298600
H201	H20	0.323000	0.153000	0.761000
H211	H21	0.949900	0.861400	0.373400
H221	H22	0.855200	0.938600	0.304200
H231	H23	0.698100	0.948900	0.489000
H241	H24	0.798900	0.872600	0.552600
H251	H25	0.548400	0.216200	0.312700
H261	H26	0.612700	0.101600	0.273900
H271	H27	0.720500	0.080800	0.483300
H281	H28	0.651800	0.196700	0.515400
H291	H29	0.099100	0.172400	0.919300
H301	H30	0.205200	0.123800	0.840400
H311	H31	0.211900	0.334100	0.734500
H321	H32	0.102100	0.374200	0.814700
H331	H33	0.335500	0.328900	0.525700
H341	H34	0.252600	0.295300	0.628800
H351	H35	0.448000	0.149400	0.693100
H361	H36	0.524800	0.189900	0.588400
H371	H37	0.798000	0.997000	0.798600
H381	H38	0.177000	0.153000	0.261000
H391	H39	0.550100	0.861400	0.873400
H401	H40	0.644800	0.938600	0.804200
H411	H41	0.801900	0.948900	0.989000
H421	H42	0.701100	0.872600	0.052600
H431	H43	0.951600	0.216200	0.812700
H441	H44	0.887300	0.101600	0.773900
H451	H45	0.779500	0.080800	0.983300
H461	H46	0.848200	0.196700	0.015400
H471	H47	0.400900	0.172400	0.419300
H481	H48	0.294800	0.123800	0.340400
H491	H49	0.288100	0.334100	0.234500
H501	H50	0.397900	0.374200	0.314700
H511	H51	0.164500	0.328900	0.025700
H521	H52	0.247400	0.295300	0.128800
H531	H53	0.052000	0.149400	0.193100
H541	H54	0.975200	0.189900	0.088400
H551	H55	0.702000	0.497000	0.201400
H561	H56	0.323000	0.653000	0.739000
H571	H57	0.949900	0.361400	0.126600
H581	H58	0.855200	0.438600	0.195800
H591	H59	0.698100	0.448900	0.011000
H601	H60	0.798900	0.372600	0.947400
H611	H61	0.548400	0.716200	0.187300
H621	H62	0.612700	0.601600	0.226100
H631	H63	0.720500	0.580800	0.016700
H641	H64	0.651800	0.696700	0.984600
H651	H65	0.099100	0.672400	0.580700
H661	H66	0.205200	0.623800	0.659600
H671	H67	0.211900	0.834100	0.765500
H681	H68	0.102100	0.874200	0.685300
H691	H69	0.335500	0.828900	0.974300
H701	H70	0.252600	0.795300	0.871200
H711	H71	0.448000	0.649400	0.806900
H721	H72	0.524800	0.689900	0.911600
C11	C1	0.600800	0.380200	0.602800
C21	C2	0.657000	0.427000	0.644900
C31	C3	0.732000	0.456600	0.609900
C41	C4	0.750100	0.433300	0.535200
C51	C5	0.689500	0.386600	0.497800
C61	C6	0.917800	0.688200	0.652200
C71	C7	0.879100	0.619200	0.676200
C81	C8	0.827100	0.575400	0.625400
C91	C9	0.815000	0.606500	0.552200
C101	C10	0.857000	0.676600	0.533500
C111	C11	0.378000	0.705200	0.118400
C121	C12	0.313400	0.675700	0.165000
C131	C13	0.275300	0.724300	0.221200
C141	C14	0.309500	0.800000	0.228300
C151	C15	0.375700	0.823600	0.179400
C161	C16	0.140900	0.793300	0.439500
C171	C17	0.191700	0.773200	0.377500
C181	C18	0.159500	0.719600	0.324200
C191	C19	0.076000	0.687100	0.339300
C201	C20	0.030500	0.711900	0.402900
C211	C21	0.899200	0.880200	0.397200
C221	C22	0.843000	0.927000	0.355100
C231	C23	0.768000	0.956600	0.390100
C241	C24	0.749900	0.933300	0.464800
C251	C25	0.810500	0.886600	0.502200
C261	C26	0.582200	0.188200	0.347800
C271	C27	0.620900	0.119200	0.323800
C281	C28	0.672900	0.075400	0.374600
C291	C29	0.685000	0.106500	0.447800
C301	C30	0.643000	0.176600	0.466500
C311	C31	0.122000	0.205200	0.881600
C321	C32	0.186600	0.175700	0.835000
C331	C33	0.224700	0.224300	0.778800
C341	C34	0.190500	0.300000	0.771700
C351	C35	0.124300	0.323600	0.820600
C361	C36	0.359100	0.293300	0.560500
C371	C37	0.308300	0.273200	0.622500
C381	C38	0.340500	0.219600	0.675800
C391	C39	0.424000	0.187100	0.660700
C401	C40	0.469500	0.211900	0.597100
C411	C41	0.600800	0.880200	0.897200
C421	C42	0.657000	0.927000	0.855100
C431	C43	0.732000	0.956600	0.890100
C441	C44	0.750100	0.933300	0.964800
C451	C45	0.689500	0.886600	0.002200
C461	C46	0.917800	0.188200	0.847800
C471	C47	0.879100	0.119200	0.823800
C481	C48	0.827100	0.075400	0.874600
C491	C49	0.815000	0.106500	0.947800
C501	C50	0.857000	0.176600	0.966500
C511	C51	0.378000	0.205200	0.381600
C521	C52	0.313400	0.175700	0.335000
C531	C53	0.275300	0.224300	0.278800
C541	C54	0.309500	0.300000	0.271700
C551	C55	0.375700	0.323600	0.320600
C561	C56	0.140900	0.293300	0.060500
C571	C57	0.191700	0.273200	0.122500
C581	C58	0.159500	0.219600	0.175800
C591	C59	0.076000	0.187100	0.160700
C601	C60	0.030500	0.211900	0.097100
C611	C61	0.899200	0.380200	0.102800
C621	C62	0.843000	0.427000	0.144900
C631	C63	0.768000	0.456600	0.109900
C641	C64	0.749900	0.433300	0.035200
C651	C65	0.810500	0.386600	0.997800
C661	C66	0.582200	0.688200	0.152200
C671	C67	0.620900	0.619200	0.176200
C681	C68	0.672900	0.575400	0.125400
C691	C69	0.685000	0.606500	0.052200
C701	C70	0.643000	0.676600	0.033500
C711	C71	0.122000	0.705200	0.618400
C721	C72	0.186600	0.675700	0.665000
C731	C73	0.224700	0.724300	0.721200
C741	C74	0.190500	0.800000	0.728300
C751	C75	0.124300	0.823600	0.679400
C761	C76	0.359100	0.793300	0.939500
C771	C77	0.308300	0.773200	0.877500
C781	C78	0.340500	0.719600	0.824200
C791	C79	0.424000	0.687100	0.839300
C801	C80	0.469500	0.711900	0.902900
N11	N1	0.909600	0.717470	0.581000
N21	N2	0.614800	0.360100	0.529700
N31	N3	0.787900	0.507600	0.651600
N41	N4	0.059600	0.765400	0.453500
N51	N5	0.204600	0.693400	0.260400
N61	N6	0.410300	0.778600	0.123700
N71	N7	0.590400	0.217470	0.419000
N81	N8	0.885200	0.860100	0.470300
N91	N9	0.712100	0.007600	0.348400
N101	N10	0.440400	0.265400	0.546500
N111	N11	0.295400	0.193400	0.739600
N121	N12	0.089700	0.278600	0.876300
N131	N13	0.909600	0.217470	0.919000
N141	N14	0.614800	0.860100	0.970300
N151	N15	0.787900	0.007600	0.848400
N161	N16	0.059600	0.265400	0.046500
N171	N17	0.204600	0.193400	0.239600
N181	N18	0.410300	0.278600	0.376300
N191	N19	0.590400	0.717470	0.081000
N201	N20	0.885200	0.360100	0.029700
N211	N21	0.712100	0.507600	0.151600
N221	N22	0.440400	0.765400	0.953500
N231	N23	0.295400	0.693400	0.760400
N241	N24	0.089700	0.778600	0.623700
Co51	Co5	0.013040	0.682840	0.048160
Co61	Co6	0.486960	0.182840	0.951840
Co71	Co7	0.013040	0.182840	0.451840
Co81	Co8	0.486960	0.682840	0.548160
H731	H73	0.202000	0.003000	0.201400
H741	H74	0.823000	0.847000	0.739000
H751	H75	0.449900	0.138600	0.126600
H761	H76	0.355200	0.061400	0.195800
H771	H77	0.198100	0.051100	0.011000
H781	H78	0.298900	0.127400	0.947400
H791	H79	0.048400	0.783800	0.187300
H801	H80	0.112700	0.898400	0.226100
H811	H81	0.220500	0.919200	0.016700
H821	H82	0.151800	0.803300	0.984600
H831	H83	0.599100	0.827600	0.580700
H841	H84	0.705200	0.876200	0.659600
H851	H85	0.711900	0.665900	0.765500
H861	H86	0.602100	0.625800	0.685300
H871	H87	0.835500	0.671100	0.974300
H881	H88	0.752600	0.704700	0.871200
H891	H89	0.948000	0.850600	0.806900
H901	H90	0.024800	0.810100	0.911600
H911	H91	0.298000	0.503000	0.798600
H921	H92	0.677000	0.347000	0.261000
H931	H93	0.050100	0.638600	0.873400
H941	H94	0.144800	0.561400	0.804200
H951	H95	0.301900	0.551100	0.989000
H961	H96	0.201100	0.627400	0.052600
H971	H97	0.451600	0.283800	0.812700
H981	H98	0.387300	0.398400	0.773900
H991	H99	0.279500	0.419200	0.983300
H1001	H100	0.348200	0.303300	0.015400
H1011	H101	0.900900	0.327600	0.419300
H1021	H102	0.794800	0.376200	0.340400
H1031	H103	0.788100	0.165900	0.234500
H1041	H104	0.897900	0.125800	0.314700
H1051	H105	0.664500	0.171100	0.025700
H1061	H106	0.747400	0.204700	0.128800
H1071	H107	0.552000	0.350600	0.193100
H1081	H108	0.475200	0.310100	0.088400
H1091	H109	0.202000	0.503000	0.298600
H1101	H110	0.823000	0.347000	0.761000
H1111	H111	0.449900	0.638600	0.373400
H1121	H112	0.355200	0.561400	0.304200
H1131	H113	0.198100	0.551100	0.489000
H1141	H114	0.298900	0.627400	0.552600
H1151	H115	0.048400	0.283800	0.312700
H1161	H116	0.112700	0.398400	0.273900
H1171	H117	0.220500	0.419200	0.483300
H1181	H118	0.151800	0.303300	0.515400
H1191	H119	0.599100	0.327600	0.919300
H1201	H120	0.705200	0.376200	0.840400
H1211	H121	0.711900	0.165900	0.734500
H1221	H122	0.602100	0.125800	0.814700
H1231	H123	0.835500	0.171100	0.525700
H1241	H124	0.752600	0.204700	0.628800
H1251	H125	0.948000	0.350600	0.693100
H1261	H126	0.024800	0.310100	0.588400
H1271	H127	0.298000	0.003000	0.701400
H1281	H128	0.677000	0.847000	0.239000
H1291	H129	0.050100	0.138600	0.626600
H1301	H130	0.144800	0.061400	0.695800
H1311	H131	0.301900	0.051100	0.511000
H1321	H132	0.201100	0.127400	0.447400
H1331	H133	0.451600	0.783800	0.687300
H1341	H134	0.387300	0.898400	0.726100
H1351	H135	0.279500	0.919200	0.516700
H1361	H136	0.348200	0.803300	0.484600
H1371	H137	0.900900	0.827600	0.080700
H1381	H138	0.794800	0.876200	0.159600
H1391	H139	0.788100	0.665900	0.265500
H1401	H140	0.897900	0.625800	0.185300
H1411	H141	0.664500	0.671100	0.474300
H1421	H142	0.747400	0.704700	0.371200
H1431	H143	0.552000	0.850600	0.306900
H1441	H144	0.475200	0.810100	0.411600
C811	C81	0.399200	0.119800	0.102800
C821	C82	0.343000	0.073000	0.144900
C831	C83	0.268000	0.043400	0.109900
C841	C84	0.249900	0.066700	0.035200
C851	C85	0.310500	0.113400	0.997800
C861	C86	0.082200	0.811800	0.152200
C871	C87	0.120900	0.880800	0.176200
C881	C88	0.172900	0.924600	0.125400
C891	C89	0.185000	0.893500	0.052200
C901	C90	0.143000	0.823400	0.033500
C911	C91	0.622000	0.794800	0.618400
C921	C92	0.686600	0.824300	0.665000
C931	C93	0.724700	0.775700	0.721200
C941	C94	0.690500	0.700000	0.728300
C951	C95	0.624300	0.676400	0.679400
C961	C96	0.859100	0.706700	0.939500
C971	C97	0.808300	0.726800	0.877500
C981	C98	0.840500	0.780400	0.824200
C991	C99	0.924000	0.812900	0.839300
C1001	C100	0.969500	0.788100	0.902900
C1011	C101	0.100800	0.619800	0.897200
C1021	C102	0.157000	0.573000	0.855100
C1031	C103	0.232000	0.543400	0.890100
C1041	C104	0.250100	0.566700	0.964800
C1051	C105	0.189500	0.613400	0.002200
C1061	C106	0.417800	0.311800	0.847800
C1071	C107	0.379100	0.380800	0.823800
C1081	C108	0.327100	0.424600	0.874600
C1091	C109	0.315000	0.393500	0.947800
C1101	C110	0.357000	0.323400	0.966500
C1111	C111	0.878000	0.294800	0.381600
C1121	C112	0.813400	0.324300	0.335000
C1131	C113	0.775300	0.275700	0.278800
C1141	C114	0.809500	0.200000	0.271700
C1151	C115	0.875700	0.176400	0.320600
C1161	C116	0.640900	0.206700	0.060500
C1171	C117	0.691700	0.226800	0.122500
C1181	C118	0.659500	0.280400	0.175800
C1191	C119	0.576000	0.312900	0.160700
C1201	C120	0.530500	0.288100	0.097100
C1211	C121	0.399200	0.619800	0.397200
C1221	C122	0.343000	0.573000	0.355100
C1231	C123	0.268000	0.543400	0.390100
C1241	C124	0.249900	0.566700	0.464800
C1251	C125	0.310500	0.613400	0.502200
C1261	C126	0.082200	0.311800	0.347800
C1271	C127	0.120900	0.380800	0.323800
C1281	C128	0.172900	0.424600	0.374600
C1291	C129	0.185000	0.393500	0.447800
C1301	C130	0.143000	0.323400	0.466500
C1311	C131	0.622000	0.294800	0.881600
C1321	C132	0.686600	0.324300	0.835000
C1331	C133	0.724700	0.275700	0.778800
C1341	C134	0.690500	0.200000	0.771700
C1351	C135	0.624300	0.176400	0.820600
C1361	C136	0.859100	0.206700	0.560500
C1371	C137	0.808300	0.226800	0.622500
C1381	C138	0.840500	0.280400	0.675800
C1391	C139	0.924000	0.312900	0.660700
C1401	C140	0.969500	0.288100	0.597100
C1411	C141	0.100800	0.119800	0.602800
C1421	C142	0.157000	0.073000	0.644900
C1431	C143	0.232000	0.043400	0.609900
C1441	C144	0.250100	0.066700	0.535200
C1451	C145	0.189500	0.113400	0.497800
C1461	C146	0.417800	0.811800	0.652200
C1471	C147	0.379100	0.880800	0.676200
C1481	C148	0.327100	0.924600	0.625400
C1491	C149	0.315000	0.893500	0.552200
C1501	C150	0.357000	0.823400	0.533500
C1511	C151	0.878000	0.794800	0.118400
C1521	C152	0.813400	0.824300	0.165000
C1531	C153	0.775300	0.775700	0.221200
C1541	C154	0.809500	0.700000	0.228300
C1551	C155	0.875700	0.676400	0.179400
C1561	C156	0.640900	0.706700	0.439500
C1571	C157	0.691700	0.726800	0.377500
C1581	C158	0.659500	0.780400	0.324200
C1591	C159	0.576000	0.812900	0.339300
C1601	C160	0.530500	0.788100	0.402900
N251	N25	0.090400	0.782530	0.081000
N261	N26	0.385200	0.139900	0.029700
N271	N27	0.212100	0.992400	0.151600
N281	N28	0.940400	0.734600	0.953500
N291	N29	0.795400	0.806600	0.760400
N301	N30	0.589700	0.721400	0.623700
N311	N31	0.409600	0.282530	0.919000
N321	N32	0.114800	0.639900	0.970300
N331	N33	0.287900	0.492400	0.848400
N341	N34	0.559600	0.234600	0.046500
N351	N35	0.704600	0.306600	0.239600
N361	N36	0.910300	0.221400	0.376300
N371	N37	0.090400	0.282530	0.419000
N381	N38	0.385200	0.639900	0.470300
N391	N39	0.212100	0.492400	0.348400
N401	N40	0.940400	0.234600	0.546500
N411	N41	0.795400	0.306600	0.739600
N421	N42	0.589700	0.221400	0.876300
N431	N43	0.409600	0.782530	0.581000
N441	N44	0.114800	0.139900	0.529700
N451	N45	0.287900	0.992400	0.651600
N461	N46	0.559600	0.734600	0.453500
N471	N47	0.704600	0.806600	0.260400
N481	N48	0.910300	0.721400	0.123700
