data_WIHDUN_clean_PM
_symmetry_space_group_name_H-M	'P1'
_cell_length_a	16.372400
_cell_length_b	7.167300
_cell_length_c	14.185700
_cell_angle_alpha	90.000000
_cell_angle_beta	90.000000
_cell_angle_gamma	90.000000
_symmetry_Int_Tables_number 1

loop_
_symmetry_equiv_pos_as_xyz
'x,y,z'

loop_
_atom_site_label
_atom_site_type_symbol
_atom_site_fract_x
_atom_site_fract_y
_atom_site_fract_z
O11	O1	0.408670	0.439300	0.447650
O21	O2	0.460160	0.190130	0.522500
O31	O3	0.415730	0.058100	0.748250
O41	O4	0.439570	0.361270	0.718260
C11	C1	0.323980	0.280500	0.556100
C21	C2	0.323970	0.222900	0.650410
C31	C3	0.404600	0.305300	0.504570
C41	C4	0.400050	0.212800	0.708820
O51	O5	0.908670	0.939300	0.947650
O61	O6	0.960160	0.690130	0.022500
O71	O7	0.915730	0.558100	0.248250
O81	O8	0.939570	0.861270	0.218260
C51	C5	0.823980	0.780500	0.056100
C61	C6	0.823970	0.722900	0.150410
C71	C7	0.904600	0.805300	0.004570
C81	C8	0.900050	0.712800	0.208820
O91	O9	0.591330	0.560700	0.447650
O101	O10	0.539840	0.809870	0.522500
O111	O11	0.584270	0.941900	0.748250
O121	O12	0.560430	0.638730	0.718260
C91	C9	0.676020	0.719500	0.556100
C101	C10	0.676030	0.777100	0.650410
C111	C11	0.595400	0.694700	0.504570
C121	C12	0.599950	0.787200	0.708820
O131	O13	0.091330	0.060700	0.947650
O141	O14	0.039840	0.309870	0.022500
O151	O15	0.084270	0.441900	0.248250
O161	O16	0.060430	0.138730	0.218260
C131	C13	0.176020	0.219500	0.056100
C141	C14	0.176030	0.277100	0.150410
C151	C15	0.095400	0.194700	0.004570
C161	C16	0.099950	0.287200	0.208820
O171	O17	0.908670	0.560700	0.447650
O181	O18	0.960160	0.809870	0.522500
O191	O19	0.915730	0.941900	0.748250
O201	O20	0.939570	0.638730	0.718260
C171	C17	0.823980	0.719500	0.556100
C181	C18	0.823970	0.777100	0.650410
C191	C19	0.904600	0.694700	0.504570
C201	C20	0.900050	0.787200	0.708820
O211	O21	0.408670	0.060700	0.947650
O221	O22	0.460160	0.309870	0.022500
O231	O23	0.415730	0.441900	0.248250
O241	O24	0.439570	0.138730	0.218260
C211	C21	0.323980	0.219500	0.056100
C221	C22	0.323970	0.277100	0.150410
C231	C23	0.404600	0.194700	0.004570
C241	C24	0.400050	0.287200	0.208820
O251	O25	0.091330	0.439300	0.447650
O261	O26	0.039840	0.190130	0.522500
O271	O27	0.084270	0.058100	0.748250
O281	O28	0.060430	0.361270	0.718260
C251	C25	0.176020	0.280500	0.556100
C261	C26	0.176030	0.222900	0.650410
C271	C27	0.095400	0.305300	0.504570
C281	C28	0.099950	0.212800	0.708820
O291	O29	0.591330	0.939300	0.947650
O301	O30	0.539840	0.690130	0.022500
O311	O31	0.584270	0.558100	0.248250
O321	O32	0.560430	0.861270	0.218260
C291	C29	0.676020	0.780500	0.056100
C301	C30	0.676030	0.722900	0.150410
C311	C31	0.595400	0.805300	0.004570
C321	C32	0.599950	0.712800	0.208820
Ni11	Ni1	0.500000	0.500000	0.353240
Ni21	Ni2	0.000000	0.000000	0.853240
Ni31	Ni3	0.000000	0.500000	0.353240
Ni41	Ni4	0.500000	0.000000	0.853240
C331	C33	0.250000	0.309700	0.509680
H11	H1	0.250000	0.349900	0.445900
C341	C34	0.250000	0.194100	0.696720
H21	H2	0.250000	0.154400	0.760600
C351	C35	0.750000	0.809700	0.009680
H31	H3	0.750000	0.849900	0.945900
C361	C36	0.750000	0.694100	0.196720
H41	H4	0.750000	0.654400	0.260600
C371	C37	0.750000	0.690300	0.509680
H51	H5	0.750000	0.650100	0.445900
C381	C38	0.750000	0.805900	0.696720
H61	H6	0.750000	0.845600	0.760600
C391	C39	0.250000	0.190300	0.009680
H71	H7	0.250000	0.150100	0.945900
C401	C40	0.250000	0.305900	0.196720
H81	H8	0.250000	0.345600	0.260600
