data_WIHVAL_clean_PM
_symmetry_space_group_name_H-M	'P1'
_cell_length_a	10.195900
_cell_length_b	11.785600
_cell_length_c	14.922400
_cell_angle_alpha	91.855900
_cell_angle_beta	90.000000
_cell_angle_gamma	90.000000
_symmetry_Int_Tables_number 1

loop_
_symmetry_equiv_pos_as_xyz
'x,y,z'

loop_
_atom_site_label
_atom_site_type_symbol
_atom_site_fract_x
_atom_site_fract_y
_atom_site_fract_z
Mn11	Mn1	0.066930	0.010170	0.437270
Mn21	Mn2	0.379250	0.009710	0.381150
Mn31	Mn3	0.458460	0.255260	0.252210
Mn41	Mn4	0.543230	0.496480	0.118760
Mn51	Mn5	0.856530	0.487430	0.064440
Mn61	Mn6	0.459960	0.754940	0.247990
Mn71	Mn7	0.566930	0.989830	0.562730
Mn81	Mn8	0.879250	0.990290	0.618850
Mn91	Mn9	0.958460	0.744740	0.747790
Mn101	Mn10	0.043230	0.503520	0.881240
Mn111	Mn11	0.356530	0.512570	0.935560
Mn121	Mn12	0.959960	0.245060	0.752010
H11	H1	0.217300	0.098300	0.619600
H21	H2	0.082400	0.817900	0.288500
H31	H3	0.003300	0.266200	0.490900
H41	H4	0.162400	0.253500	0.277100
H51	H5	0.608900	0.952800	0.174000
H61	H6	0.168000	0.785100	0.527400
H71	H7	0.742900	0.249300	0.225800
H81	H8	0.307200	0.558300	0.323900
H91	H9	0.250800	0.295900	0.032000
H101	H10	0.706600	0.395700	0.885700
H111	H11	0.836100	0.693300	0.208700
H121	H12	0.432700	0.770900	0.986600
H131	H13	0.717300	0.901700	0.380400
H141	H14	0.582400	0.182100	0.711500
H151	H15	0.503300	0.733800	0.509100
H161	H16	0.662400	0.746500	0.722900
H171	H17	0.108900	0.047200	0.826000
H181	H18	0.668000	0.214900	0.472600
H191	H19	0.242900	0.750700	0.774200
H201	H20	0.807200	0.441700	0.676100
H211	H21	0.750800	0.704100	0.968000
H221	H22	0.206600	0.604300	0.114300
H231	H23	0.336100	0.306700	0.791300
H241	H24	0.932700	0.229100	0.013400
C11	C1	0.285500	0.072800	0.582900
C21	C2	0.171300	0.832700	0.296800
C31	C3	0.979600	0.227400	0.541700
C41	C4	0.179900	0.190900	0.311600
C51	C5	0.554100	0.994400	0.212700
C61	C6	0.100900	0.806200	0.566600
C71	C7	0.730100	0.312800	0.191500
C81	C8	0.360500	0.514100	0.286000
C91	C9	0.317900	0.315400	0.071800
C101	C10	0.638300	0.425100	0.920600
C111	C11	0.747700	0.676300	0.200300
C121	C12	0.449400	0.732600	0.038900
C131	C13	0.785500	0.927200	0.417100
C141	C14	0.671300	0.167300	0.703200
C151	C15	0.479600	0.772600	0.458300
C161	C16	0.679900	0.809100	0.688400
C171	C17	0.054100	0.005600	0.787300
C181	C18	0.600900	0.193800	0.433400
C191	C19	0.230100	0.687200	0.808500
C201	C20	0.860500	0.485900	0.714000
C211	C21	0.817900	0.684600	0.928200
C221	C22	0.138300	0.574900	0.079400
C231	C23	0.247700	0.323700	0.799700
C241	C24	0.949400	0.267400	0.961100
O11	O1	0.257600	0.053800	0.499700
O21	O2	0.391500	0.061000	0.618600
O31	O3	0.201900	0.907700	0.355100
O41	O4	0.251100	0.775900	0.248600
O51	O5	0.968000	0.119700	0.534900
O61	O6	0.960700	0.283600	0.613300
O71	O7	0.086100	0.146700	0.348700
O81	O8	0.301500	0.158000	0.316500
O91	O9	0.485300	0.940500	0.268000
O101	O10	0.552600	0.101400	0.207000
O111	O11	0.041800	0.898500	0.552200
O121	O12	0.076500	0.741400	0.629100
O131	O13	0.616800	0.350300	0.187700
O141	O14	0.829900	0.352700	0.153600
O151	O15	0.359800	0.412700	0.296600
O161	O16	0.428500	0.567200	0.227100
O171	O17	0.335700	0.252000	0.133800
O181	O18	0.381700	0.405200	0.056000
O191	O19	0.661500	0.445800	0.002600
O201	O20	0.529600	0.441200	0.882200
O211	O21	0.721400	0.595500	0.143000
O221	O22	0.671700	0.732100	0.244000
O231	O23	0.458800	0.624100	0.031100
O241	O24	0.459900	0.791000	0.107400
O251	O25	0.757600	0.946200	0.500300
O261	O26	0.891500	0.939000	0.381400
O271	O27	0.701900	0.092300	0.644900
O281	O28	0.751100	0.224100	0.751400
O291	O29	0.468000	0.880300	0.465100
O301	O30	0.460700	0.716400	0.386700
O311	O31	0.586100	0.853300	0.651300
O321	O32	0.801500	0.842000	0.683500
O331	O33	0.985300	0.059500	0.732000
O341	O34	0.052600	0.898600	0.793000
O351	O35	0.541800	0.101500	0.447800
O361	O36	0.576500	0.258600	0.370900
O371	O37	0.116800	0.649700	0.812300
O381	O38	0.329900	0.647300	0.846400
O391	O39	0.859800	0.587300	0.703400
O401	O40	0.928500	0.432800	0.772900
O411	O41	0.835700	0.748000	0.866200
O421	O42	0.881700	0.594800	0.944000
O431	O43	0.161500	0.554200	0.997400
O441	O44	0.029600	0.558800	0.117800
O451	O45	0.221400	0.404500	0.857000
O461	O46	0.171700	0.267900	0.756000
O471	O47	0.958800	0.375900	0.968900
O481	O48	0.959900	0.209000	0.892600
