data_WIJDAV_clean_PM
_symmetry_space_group_name_H-M	'P1'
_cell_length_a	11.690000
_cell_length_b	14.173000
_cell_length_c	17.998000
_cell_angle_alpha	90.000000
_cell_angle_beta	90.000000
_cell_angle_gamma	111.013000
_symmetry_Int_Tables_number 1

loop_
_symmetry_equiv_pos_as_xyz
'x,y,z'

loop_
_atom_site_label
_atom_site_type_symbol
_atom_site_fract_x
_atom_site_fract_y
_atom_site_fract_z
Zn11	Zn1	0.936590	0.113340	0.166580
Zn21	Zn2	0.849060	0.861250	0.144860
Zn31	Zn3	0.871850	0.394120	0.405810
Zn41	Zn4	0.563410	0.386660	0.666580
Zn51	Zn5	0.650940	0.638750	0.644860
Zn61	Zn6	0.628150	0.105880	0.905810
Zn71	Zn7	0.063410	0.886660	0.833420
Zn81	Zn8	0.150940	0.138750	0.855140
Zn91	Zn9	0.128150	0.605880	0.594190
Zn101	Zn10	0.436590	0.613340	0.333420
Zn111	Zn11	0.349060	0.361250	0.355140
Zn121	Zn12	0.371850	0.894120	0.094190
H11	H1	0.912500	0.984000	0.245100
H21	H2	0.803500	0.253100	0.252200
H31	H3	0.991200	0.575400	0.424400
H41	H4	0.801700	0.575200	0.444500
H51	H5	0.776200	0.561800	0.359000
H61	H6	0.141700	0.118700	0.038100
H71	H7	0.939500	0.547700	0.276000
H81	H8	0.063900	0.553300	0.311900
H91	H9	0.819200	0.728000	0.389800
H101	H10	0.944000	0.734700	0.426100
H111	H11	0.110500	0.722000	0.341900
H121	H12	0.082000	0.708000	0.256400
H131	H13	0.979000	0.799700	0.311200
H141	H14	0.892300	0.708200	0.278200
H151	H15	0.587500	0.516000	0.745100
H161	H16	0.696500	0.246900	0.752200
H171	H17	0.508800	0.924600	0.924400
H181	H18	0.698300	0.924800	0.944500
H191	H19	0.723800	0.938200	0.859000
H201	H20	0.358300	0.381300	0.538100
H211	H21	0.560500	0.952300	0.776000
H221	H22	0.436100	0.946700	0.811900
H231	H23	0.680800	0.772000	0.889800
H241	H24	0.556000	0.765300	0.926100
H251	H25	0.389500	0.778000	0.841900
H261	H26	0.418000	0.792000	0.756400
H271	H27	0.521000	0.700300	0.811200
H281	H28	0.607700	0.791800	0.778200
H291	H29	0.087500	0.016000	0.754900
H301	H30	0.196500	0.746900	0.747800
H311	H31	0.008800	0.424600	0.575600
H321	H32	0.198300	0.424800	0.555500
H331	H33	0.223800	0.438200	0.641000
H341	H34	0.858300	0.881300	0.961900
H351	H35	0.060500	0.452300	0.724000
H361	H36	0.936100	0.446700	0.688100
H371	H37	0.180800	0.272000	0.610200
H381	H38	0.056000	0.265300	0.573900
H391	H39	0.889500	0.278000	0.658100
H401	H40	0.918000	0.292000	0.743600
H411	H41	0.021000	0.200300	0.688800
H421	H42	0.107700	0.291800	0.721800
H431	H43	0.412500	0.484000	0.254900
H441	H44	0.303500	0.753100	0.247800
H451	H45	0.491200	0.075400	0.075600
H461	H46	0.301700	0.075200	0.055500
H471	H47	0.276200	0.061800	0.141000
H481	H48	0.641700	0.618700	0.461900
H491	H49	0.439500	0.047700	0.224000
H501	H50	0.563900	0.053300	0.188100
H511	H51	0.319200	0.228000	0.110200
H521	H52	0.444000	0.234700	0.073900
H531	H53	0.610500	0.222000	0.158100
H541	H54	0.582000	0.208000	0.243600
H551	H55	0.479000	0.299700	0.188800
H561	H56	0.392300	0.208200	0.221800
C11	C1	0.057400	0.249000	0.285300
C21	C2	0.880000	0.260700	0.271600
C31	C3	0.104700	0.360900	0.408400
C41	C4	0.038200	0.309700	0.341400
C51	C5	0.897500	0.144400	0.863800
C61	C6	0.937100	0.134700	0.941100
C71	C7	0.839300	0.591800	0.395900
C81	C8	0.154300	0.210900	0.261300
C91	C9	0.069900	0.122800	0.018600
C101	C10	0.997000	0.578300	0.315700
C111	C11	0.886600	0.703500	0.386500
C121	C12	0.046500	0.691400	0.305600
C131	C13	0.775900	0.135100	0.046200
C141	C14	0.889200	0.128800	0.011800
C151	C15	0.442600	0.251000	0.785300
C161	C16	0.620000	0.239300	0.771600
C171	C17	0.395300	0.139100	0.908400
C181	C18	0.461800	0.190300	0.841400
C191	C19	0.602500	0.355600	0.363800
C201	C20	0.562900	0.365300	0.441100
C211	C21	0.660700	0.908200	0.895900
C221	C22	0.345700	0.289100	0.761300
C231	C23	0.430100	0.377200	0.518600
C241	C24	0.503000	0.921700	0.815700
C251	C25	0.613400	0.796500	0.886500
C261	C26	0.453500	0.808600	0.805600
C271	C27	0.724100	0.364900	0.546200
C281	C28	0.610800	0.371200	0.511800
C291	C29	0.942600	0.751000	0.714700
C301	C30	0.120000	0.739300	0.728400
C311	C31	0.895300	0.639100	0.591600
C321	C32	0.961800	0.690300	0.658600
C331	C33	0.102500	0.855600	0.136200
C341	C34	0.062900	0.865300	0.058900
C351	C35	0.160700	0.408200	0.604100
C361	C36	0.845700	0.789100	0.738700
C371	C37	0.930100	0.877200	0.981400
C381	C38	0.003000	0.421700	0.684300
C391	C39	0.113400	0.296500	0.613500
C401	C40	0.953500	0.308600	0.694400
C411	C41	0.224100	0.864900	0.953800
C421	C42	0.110800	0.871200	0.988200
C431	C43	0.557400	0.749000	0.214700
C441	C44	0.380000	0.760700	0.228400
C451	C45	0.604700	0.860900	0.091600
C461	C46	0.538200	0.809700	0.158600
C471	C47	0.397500	0.644400	0.636200
C481	C48	0.437100	0.634700	0.558900
C491	C49	0.339300	0.091800	0.104100
C501	C50	0.654300	0.710900	0.238700
C511	C51	0.569900	0.622800	0.481400
C521	C52	0.497000	0.078300	0.184300
C531	C53	0.386600	0.203500	0.113500
C541	C54	0.546500	0.191400	0.194400
C551	C55	0.275900	0.635100	0.453800
C561	C56	0.389200	0.628800	0.488200
N11	N1	0.954300	0.218100	0.241500
N21	N2	0.051500	0.130700	0.946900
N31	N3	0.925800	0.314700	0.331800
N41	N4	0.934300	0.546900	0.388600
N51	N5	0.947600	0.731900	0.314800
N61	N6	0.975100	0.121300	0.059800
N71	N7	0.545700	0.281900	0.741500
N81	N8	0.448500	0.369300	0.446900
N91	N9	0.574200	0.185300	0.831800
N101	N10	0.565700	0.953100	0.888600
N111	N11	0.552400	0.768100	0.814800
N121	N12	0.524900	0.378700	0.559800
N131	N13	0.045700	0.781900	0.758500
N141	N14	0.948500	0.869300	0.053100
N151	N15	0.074200	0.685300	0.668200
N161	N16	0.065700	0.453100	0.611400
N171	N17	0.052400	0.268100	0.685200
N181	N18	0.024900	0.878700	0.940200
N191	N19	0.454300	0.718100	0.258500
N201	N20	0.551500	0.630700	0.553100
N211	N21	0.425800	0.814700	0.168200
N221	N22	0.434300	0.046900	0.111400
N231	N23	0.447600	0.231900	0.185200
N241	N24	0.475100	0.621300	0.440200
O11	O1	0.867600	0.977800	0.206500
O21	O2	0.129100	0.150100	0.208800
O31	O3	0.207400	0.356900	0.423400
O41	O4	0.048600	0.400700	0.449100
O51	O5	0.690800	0.143200	0.007200
O61	O6	0.259100	0.240800	0.293500
O71	O7	0.792000	0.141700	0.849500
O81	O8	0.976600	0.153400	0.813800
O91	O9	0.772700	0.131500	0.114700
O101	O10	0.632400	0.522200	0.706500
O111	O11	0.370900	0.349900	0.708800
O121	O12	0.292600	0.143100	0.923400
O131	O13	0.451400	0.099300	0.949100
O141	O14	0.809200	0.356800	0.507200
O151	O15	0.240900	0.259200	0.793500
O161	O16	0.708000	0.358300	0.349500
O171	O17	0.523400	0.346600	0.313800
O181	O18	0.727300	0.368500	0.614700
O191	O19	0.132400	0.022200	0.793500
O201	O20	0.870900	0.849900	0.791200
O211	O21	0.792600	0.643100	0.576600
O221	O22	0.951400	0.599300	0.550900
O231	O23	0.309200	0.856800	0.992800
O241	O24	0.740900	0.759200	0.706500
O251	O25	0.208000	0.858300	0.150500
O261	O26	0.023400	0.846600	0.186200
O271	O27	0.227300	0.868500	0.885300
O281	O28	0.367600	0.477800	0.293500
O291	O29	0.629100	0.650100	0.291200
O301	O30	0.707400	0.856900	0.076600
O311	O31	0.548600	0.900700	0.050900
O321	O32	0.190800	0.643200	0.492800
O331	O33	0.759100	0.740800	0.206500
O341	O34	0.292000	0.641700	0.650500
O351	O35	0.476600	0.653400	0.686200
O361	O36	0.272700	0.631500	0.385300
