data_WIJXIY_clean_PM
_symmetry_space_group_name_H-M	'P1'
_cell_length_a	22.897300
_cell_length_b	26.506100
_cell_length_c	31.647200
_cell_angle_alpha	90.000000
_cell_angle_beta	90.000000
_cell_angle_gamma	90.000000
_symmetry_Int_Tables_number 1

loop_
_symmetry_equiv_pos_as_xyz
'x,y,z'

loop_
_atom_site_label
_atom_site_type_symbol
_atom_site_fract_x
_atom_site_fract_y
_atom_site_fract_z
Zn11	Zn1	0.719040	0.656400	0.680910
Zn21	Zn2	0.616650	0.717500	0.733330
N11	N1	0.931590	0.488780	0.751050
H11	H1	0.912500	0.467700	0.735700
N21	N2	0.769900	0.687240	0.458630
H21	H2	0.737100	0.672700	0.453600
O11	O1	0.808370	0.690050	0.751330
O21	O2	0.773900	0.621980	0.717390
O31	O3	0.151560	0.389860	0.815890
O41	O4	0.085760	0.350460	0.774790
O51	O5	0.806870	0.703210	0.647470
O61	O6	0.734460	0.659760	0.619900
O71	O7	0.797470	0.711500	0.296650
O81	O8	0.892440	0.729920	0.293410
O91	O9	0.692050	0.721060	0.704810
H31	H3	0.692100	0.741300	0.689400
C11	C1	0.810330	0.644330	0.740910
C21	C2	0.860720	0.613920	0.757050
C31	C3	0.902480	0.636550	0.783550
H41	H4	0.897600	0.669900	0.792000
C41	C4	0.950550	0.609860	0.797060
H51	H5	0.978300	0.625300	0.814200
C51	C5	0.957620	0.559700	0.785000
C61	C6	0.915390	0.537830	0.759060
C71	C7	0.867060	0.564490	0.744590
H61	H6	0.839700	0.549300	0.727000
C81	C8	0.000300	0.521880	0.793570
C91	C9	0.050670	0.520390	0.817250
H71	H7	0.062300	0.548300	0.832900
C101	C10	0.083540	0.476880	0.817400
H81	H8	0.117800	0.476000	0.833200
C111	C11	0.067220	0.434330	0.794700
C121	C12	0.016310	0.435090	0.771660
H91	H9	0.004300	0.406900	0.756500
C131	C13	0.983120	0.479120	0.771530
C141	C14	0.104810	0.387970	0.795260
C151	C15	0.779900	0.686770	0.615900
C161	C16	0.801290	0.698040	0.572740
C171	C17	0.853820	0.724170	0.568200
H101	H10	0.874200	0.733700	0.592400
C181	C18	0.876590	0.736360	0.529300
H111	H11	0.911600	0.753900	0.527100
C191	C19	0.846060	0.721790	0.493190
C201	C20	0.792260	0.696150	0.498220
C211	C21	0.770360	0.684460	0.537560
H121	H12	0.735000	0.667500	0.540200
C221	C22	0.855680	0.727420	0.448350
C231	C23	0.900140	0.747320	0.424400
H131	H13	0.932400	0.761800	0.437600
C241	C24	0.897000	0.745910	0.381120
H141	H14	0.927200	0.759400	0.365000
C251	C25	0.847990	0.724020	0.360980
C261	C26	0.802930	0.704490	0.384470
H151	H15	0.770000	0.691200	0.371400
C271	C27	0.807690	0.705090	0.428160
C281	C28	0.845310	0.721810	0.313820
Zn31	Zn3	0.780960	0.843600	0.680910
Zn41	Zn4	0.883350	0.782500	0.733330
N31	N3	0.568410	0.011220	0.751050
H161	H16	0.587500	0.032300	0.735700
N41	N4	0.730100	0.812760	0.458630
H171	H17	0.762900	0.827300	0.453600
O101	O10	0.691630	0.809950	0.751330
O111	O11	0.726100	0.878020	0.717390
O121	O12	0.348440	0.110140	0.815890
O131	O13	0.414240	0.149540	0.774790
O141	O14	0.693130	0.796790	0.647470
O151	O15	0.765540	0.840240	0.619900
O161	O16	0.702530	0.788500	0.296650
O171	O17	0.607560	0.770080	0.293410
O181	O18	0.807950	0.778940	0.704810
H181	H18	0.807900	0.758700	0.689400
C291	C29	0.689670	0.855670	0.740910
C301	C30	0.639280	0.886080	0.757050
C311	C31	0.597520	0.863450	0.783550
H191	H19	0.602400	0.830100	0.792000
C321	C32	0.549450	0.890140	0.797060
H201	H20	0.521700	0.874700	0.814200
C331	C33	0.542380	0.940300	0.785000
C341	C34	0.584610	0.962170	0.759060
C351	C35	0.632940	0.935510	0.744590
H211	H21	0.660300	0.950700	0.727000
C361	C36	0.499700	0.978120	0.793570
C371	C37	0.449330	0.979610	0.817250
H221	H22	0.437700	0.951700	0.832900
C381	C38	0.416460	0.023120	0.817400
H231	H23	0.382200	0.024000	0.833200
C391	C39	0.432780	0.065670	0.794700
C401	C40	0.483690	0.064910	0.771660
H241	H24	0.495700	0.093100	0.756500
C411	C41	0.516880	0.020880	0.771530
C421	C42	0.395190	0.112030	0.795260
C431	C43	0.720100	0.813230	0.615900
C441	C44	0.698710	0.801960	0.572740
C451	C45	0.646180	0.775830	0.568200
H251	H25	0.625800	0.766300	0.592400
C461	C46	0.623410	0.763640	0.529300
H261	H26	0.588400	0.746100	0.527100
C471	C47	0.653940	0.778210	0.493190
C481	C48	0.707740	0.803850	0.498220
C491	C49	0.729640	0.815540	0.537560
H271	H27	0.765000	0.832500	0.540200
C501	C50	0.644320	0.772580	0.448350
C511	C51	0.599860	0.752680	0.424400
H281	H28	0.567600	0.738200	0.437600
C521	C52	0.603000	0.754090	0.381120
H291	H29	0.572800	0.740600	0.365000
C531	C53	0.652010	0.775980	0.360980
C541	C54	0.697070	0.795510	0.384470
H301	H30	0.730000	0.808800	0.371400
C551	C55	0.692310	0.794910	0.428160
C561	C56	0.654690	0.778190	0.313820
Zn51	Zn5	0.280960	0.156400	0.819090
Zn61	Zn6	0.383350	0.217500	0.766670
N51	N5	0.068410	0.988780	0.748950
H311	H31	0.087500	0.967700	0.764300
N61	N6	0.230100	0.187240	0.041370
H321	H32	0.262900	0.172700	0.046400
O191	O19	0.191630	0.190050	0.748670
O201	O20	0.226100	0.121980	0.782610
O211	O21	0.848440	0.889860	0.684110
O221	O22	0.914240	0.850460	0.725210
O231	O23	0.193130	0.203210	0.852530
O241	O24	0.265540	0.159760	0.880100
O251	O25	0.202530	0.211500	0.203350
O261	O26	0.107560	0.229920	0.206590
O271	O27	0.307950	0.221060	0.795190
H331	H33	0.307900	0.241300	0.810600
C571	C57	0.189670	0.144330	0.759090
C581	C58	0.139280	0.113920	0.742950
C591	C59	0.097520	0.136550	0.716450
H341	H34	0.102400	0.169900	0.708000
C601	C60	0.049450	0.109860	0.702940
H351	H35	0.021700	0.125300	0.685800
C611	C61	0.042380	0.059700	0.715000
C621	C62	0.084610	0.037830	0.740940
C631	C63	0.132940	0.064490	0.755410
H361	H36	0.160300	0.049300	0.773000
C641	C64	0.999700	0.021880	0.706430
C651	C65	0.949330	0.020390	0.682750
H371	H37	0.937700	0.048300	0.667100
C661	C66	0.916460	0.976880	0.682600
H381	H38	0.882200	0.976000	0.666800
C671	C67	0.932780	0.934330	0.705300
C681	C68	0.983690	0.935090	0.728340
H391	H39	0.995700	0.906900	0.743500
C691	C69	0.016880	0.979120	0.728470
C701	C70	0.895190	0.887970	0.704740
C711	C71	0.220100	0.186770	0.884100
C721	C72	0.198710	0.198040	0.927260
C731	C73	0.146180	0.224170	0.931800
H401	H40	0.125800	0.233700	0.907600
C741	C74	0.123410	0.236360	0.970700
H411	H41	0.088400	0.253900	0.972900
C751	C75	0.153940	0.221790	0.006810
C761	C76	0.207740	0.196150	0.001780
C771	C77	0.229640	0.184460	0.962440
H421	H42	0.265000	0.167500	0.959800
C781	C78	0.144320	0.227420	0.051650
C791	C79	0.099860	0.247320	0.075600
H431	H43	0.067600	0.261800	0.062400
C801	C80	0.103000	0.245910	0.118880
H441	H44	0.072800	0.259400	0.135000
C811	C81	0.152010	0.224020	0.139020
C821	C82	0.197070	0.204490	0.115530
H451	H45	0.230000	0.191200	0.128600
C831	C83	0.192310	0.205090	0.071840
C841	C84	0.154690	0.221810	0.186180
Zn71	Zn7	0.219040	0.343600	0.819090
Zn81	Zn8	0.116650	0.282500	0.766670
N71	N7	0.431590	0.511220	0.748950
H461	H46	0.412500	0.532300	0.764300
N81	N8	0.269900	0.312760	0.041370
H471	H47	0.237100	0.327300	0.046400
O281	O28	0.308370	0.309950	0.748670
O291	O29	0.273900	0.378020	0.782610
O301	O30	0.651560	0.610140	0.684110
O311	O31	0.585760	0.649540	0.725210
O321	O32	0.306870	0.296790	0.852530
O331	O33	0.234460	0.340240	0.880100
O341	O34	0.297470	0.288500	0.203350
O351	O35	0.392440	0.270080	0.206590
O361	O36	0.192050	0.278940	0.795190
H481	H48	0.192100	0.258700	0.810600
C851	C85	0.310330	0.355670	0.759090
C861	C86	0.360720	0.386080	0.742950
C871	C87	0.402480	0.363450	0.716450
H491	H49	0.397600	0.330100	0.708000
C881	C88	0.450550	0.390140	0.702940
H501	H50	0.478300	0.374700	0.685800
C891	C89	0.457620	0.440300	0.715000
C901	C90	0.415390	0.462170	0.740940
C911	C91	0.367060	0.435510	0.755410
H511	H51	0.339700	0.450700	0.773000
C921	C92	0.500300	0.478120	0.706430
C931	C93	0.550670	0.479610	0.682750
H521	H52	0.562300	0.451700	0.667100
C941	C94	0.583540	0.523120	0.682600
H531	H53	0.617800	0.524000	0.666800
C951	C95	0.567220	0.565670	0.705300
C961	C96	0.516310	0.564910	0.728340
H541	H54	0.504300	0.593100	0.743500
C971	C97	0.483120	0.520880	0.728470
C981	C98	0.604810	0.612030	0.704740
C991	C99	0.279900	0.313230	0.884100
C1001	C100	0.301290	0.301960	0.927260
C1011	C101	0.353820	0.275830	0.931800
H551	H55	0.374200	0.266300	0.907600
C1021	C102	0.376590	0.263640	0.970700
H561	H56	0.411600	0.246100	0.972900
C1031	C103	0.346060	0.278210	0.006810
C1041	C104	0.292260	0.303850	0.001780
C1051	C105	0.270360	0.315540	0.962440
H571	H57	0.235000	0.332500	0.959800
C1061	C106	0.355680	0.272580	0.051650
C1071	C107	0.400140	0.252680	0.075600
H581	H58	0.432400	0.238200	0.062400
C1081	C108	0.397000	0.254090	0.118880
H591	H59	0.427200	0.240600	0.135000
C1091	C109	0.347990	0.275980	0.139020
C1101	C110	0.302930	0.295510	0.115530
H601	H60	0.270000	0.308800	0.128600
C1111	C111	0.307690	0.294910	0.071840
C1121	C112	0.345310	0.278190	0.186180
Zn91	Zn9	0.280960	0.343600	0.319090
Zn101	Zn10	0.383350	0.282500	0.266670
N91	N9	0.068410	0.511220	0.248950
H611	H61	0.087500	0.532300	0.264300
N101	N10	0.230100	0.312760	0.541370
H621	H62	0.262900	0.327300	0.546400
O371	O37	0.191630	0.309950	0.248670
O381	O38	0.226100	0.378020	0.282610
O391	O39	0.848440	0.610140	0.184110
O401	O40	0.914240	0.649540	0.225210
O411	O41	0.193130	0.296790	0.352530
O421	O42	0.265540	0.340240	0.380100
O431	O43	0.202530	0.288500	0.703350
O441	O44	0.107560	0.270080	0.706590
O451	O45	0.307950	0.278940	0.295190
H631	H63	0.307900	0.258700	0.310600
C1131	C113	0.189670	0.355670	0.259090
C1141	C114	0.139280	0.386080	0.242950
C1151	C115	0.097520	0.363450	0.216450
H641	H64	0.102400	0.330100	0.208000
C1161	C116	0.049450	0.390140	0.202940
H651	H65	0.021700	0.374700	0.185800
C1171	C117	0.042380	0.440300	0.215000
C1181	C118	0.084610	0.462170	0.240940
C1191	C119	0.132940	0.435510	0.255410
H661	H66	0.160300	0.450700	0.273000
C1201	C120	0.999700	0.478120	0.206430
C1211	C121	0.949330	0.479610	0.182750
H671	H67	0.937700	0.451700	0.167100
C1221	C122	0.916460	0.523120	0.182600
H681	H68	0.882200	0.524000	0.166800
C1231	C123	0.932780	0.565670	0.205300
C1241	C124	0.983690	0.564910	0.228340
H691	H69	0.995700	0.593100	0.243500
C1251	C125	0.016880	0.520880	0.228470
C1261	C126	0.895190	0.612030	0.204740
C1271	C127	0.220100	0.313230	0.384100
C1281	C128	0.198710	0.301960	0.427260
C1291	C129	0.146180	0.275830	0.431800
H701	H70	0.125800	0.266300	0.407600
C1301	C130	0.123410	0.263640	0.470700
H711	H71	0.088400	0.246100	0.472900
C1311	C131	0.153940	0.278210	0.506810
C1321	C132	0.207740	0.303850	0.501780
C1331	C133	0.229640	0.315540	0.462440
H721	H72	0.265000	0.332500	0.459800
C1341	C134	0.144320	0.272580	0.551650
C1351	C135	0.099860	0.252680	0.575600
H731	H73	0.067600	0.238200	0.562400
C1361	C136	0.103000	0.254090	0.618880
H741	H74	0.072800	0.240600	0.635000
C1371	C137	0.152010	0.275980	0.639020
C1381	C138	0.197070	0.295510	0.615530
H751	H75	0.230000	0.308800	0.628600
C1391	C139	0.192310	0.294910	0.571840
C1401	C140	0.154690	0.278190	0.686180
Zn111	Zn11	0.219040	0.156400	0.319090
Zn121	Zn12	0.116650	0.217500	0.266670
N111	N11	0.431590	0.988780	0.248950
H761	H76	0.412500	0.967700	0.264300
N121	N12	0.269900	0.187240	0.541370
H771	H77	0.237100	0.172700	0.546400
O461	O46	0.308370	0.190050	0.248670
O471	O47	0.273900	0.121980	0.282610
O481	O48	0.651560	0.889860	0.184110
O491	O49	0.585760	0.850460	0.225210
O501	O50	0.306870	0.203210	0.352530
O511	O51	0.234460	0.159760	0.380100
O521	O52	0.297470	0.211500	0.703350
O531	O53	0.392440	0.229920	0.706590
O541	O54	0.192050	0.221060	0.295190
H781	H78	0.192100	0.241300	0.310600
C1411	C141	0.310330	0.144330	0.259090
C1421	C142	0.360720	0.113920	0.242950
C1431	C143	0.402480	0.136550	0.216450
H791	H79	0.397600	0.169900	0.208000
C1441	C144	0.450550	0.109860	0.202940
H801	H80	0.478300	0.125300	0.185800
C1451	C145	0.457620	0.059700	0.215000
C1461	C146	0.415390	0.037830	0.240940
C1471	C147	0.367060	0.064490	0.255410
H811	H81	0.339700	0.049300	0.273000
C1481	C148	0.500300	0.021880	0.206430
C1491	C149	0.550670	0.020390	0.182750
H821	H82	0.562300	0.048300	0.167100
C1501	C150	0.583540	0.976880	0.182600
H831	H83	0.617800	0.976000	0.166800
C1511	C151	0.567220	0.934330	0.205300
C1521	C152	0.516310	0.935090	0.228340
H841	H84	0.504300	0.906900	0.243500
C1531	C153	0.483120	0.979120	0.228470
C1541	C154	0.604810	0.887970	0.204740
C1551	C155	0.279900	0.186770	0.384100
C1561	C156	0.301290	0.198040	0.427260
C1571	C157	0.353820	0.224170	0.431800
H851	H85	0.374200	0.233700	0.407600
C1581	C158	0.376590	0.236360	0.470700
H861	H86	0.411600	0.253900	0.472900
C1591	C159	0.346060	0.221790	0.506810
C1601	C160	0.292260	0.196150	0.501780
C1611	C161	0.270360	0.184460	0.462440
H871	H87	0.235000	0.167500	0.459800
C1621	C162	0.355680	0.227420	0.551650
C1631	C163	0.400140	0.247320	0.575600
H881	H88	0.432400	0.261800	0.562400
C1641	C164	0.397000	0.245910	0.618880
H891	H89	0.427200	0.259400	0.635000
C1651	C165	0.347990	0.224020	0.639020
C1661	C166	0.302930	0.204490	0.615530
H901	H90	0.270000	0.191200	0.628600
C1671	C167	0.307690	0.205090	0.571840
C1681	C168	0.345310	0.221810	0.686180
Zn131	Zn13	0.719040	0.843600	0.180910
Zn141	Zn14	0.616650	0.782500	0.233330
N131	N13	0.931590	0.011220	0.251050
H911	H91	0.912500	0.032300	0.235700
N141	N14	0.769900	0.812760	0.958630
H921	H92	0.737100	0.827300	0.953600
O551	O55	0.808370	0.809950	0.251330
O561	O56	0.773900	0.878020	0.217390
O571	O57	0.151560	0.110140	0.315890
O581	O58	0.085760	0.149540	0.274790
O591	O59	0.806870	0.796790	0.147470
O601	O60	0.734460	0.840240	0.119900
O611	O61	0.797470	0.788500	0.796650
O621	O62	0.892440	0.770080	0.793410
O631	O63	0.692050	0.778940	0.204810
H931	H93	0.692100	0.758700	0.189400
C1691	C169	0.810330	0.855670	0.240910
C1701	C170	0.860720	0.886080	0.257050
C1711	C171	0.902480	0.863450	0.283550
H941	H94	0.897600	0.830100	0.292000
C1721	C172	0.950550	0.890140	0.297060
H951	H95	0.978300	0.874700	0.314200
C1731	C173	0.957620	0.940300	0.285000
C1741	C174	0.915390	0.962170	0.259060
C1751	C175	0.867060	0.935510	0.244590
H961	H96	0.839700	0.950700	0.227000
C1761	C176	0.000300	0.978120	0.293570
C1771	C177	0.050670	0.979610	0.317250
H971	H97	0.062300	0.951700	0.332900
C1781	C178	0.083540	0.023120	0.317400
H981	H98	0.117800	0.024000	0.333200
C1791	C179	0.067220	0.065670	0.294700
C1801	C180	0.016310	0.064910	0.271660
H991	H99	0.004300	0.093100	0.256500
C1811	C181	0.983120	0.020880	0.271530
C1821	C182	0.104810	0.112030	0.295260
C1831	C183	0.779900	0.813230	0.115900
C1841	C184	0.801290	0.801960	0.072740
C1851	C185	0.853820	0.775830	0.068200
H1001	H100	0.874200	0.766300	0.092400
C1861	C186	0.876590	0.763640	0.029300
H1011	H101	0.911600	0.746100	0.027100
C1871	C187	0.846060	0.778210	0.993190
C1881	C188	0.792260	0.803850	0.998220
C1891	C189	0.770360	0.815540	0.037560
H1021	H102	0.735000	0.832500	0.040200
C1901	C190	0.855680	0.772580	0.948350
C1911	C191	0.900140	0.752680	0.924400
H1031	H103	0.932400	0.738200	0.937600
C1921	C192	0.897000	0.754090	0.881120
H1041	H104	0.927200	0.740600	0.865000
C1931	C193	0.847990	0.775980	0.860980
C1941	C194	0.802930	0.795510	0.884470
H1051	H105	0.770000	0.808800	0.871400
C1951	C195	0.807690	0.794910	0.928160
C1961	C196	0.845310	0.778190	0.813820
Zn151	Zn15	0.780960	0.656400	0.180910
Zn161	Zn16	0.883350	0.717500	0.233330
N151	N15	0.568410	0.488780	0.251050
H1061	H106	0.587500	0.467700	0.235700
N161	N16	0.730100	0.687240	0.958630
H1071	H107	0.762900	0.672700	0.953600
O641	O64	0.691630	0.690050	0.251330
O651	O65	0.726100	0.621980	0.217390
O661	O66	0.348440	0.389860	0.315890
O671	O67	0.414240	0.350460	0.274790
O681	O68	0.693130	0.703210	0.147470
O691	O69	0.765540	0.659760	0.119900
O701	O70	0.702530	0.711500	0.796650
O711	O71	0.607560	0.729920	0.793410
O721	O72	0.807950	0.721060	0.204810
H1081	H108	0.807900	0.741300	0.189400
C1971	C197	0.689670	0.644330	0.240910
C1981	C198	0.639280	0.613920	0.257050
C1991	C199	0.597520	0.636550	0.283550
H1091	H109	0.602400	0.669900	0.292000
C2001	C200	0.549450	0.609860	0.297060
H1101	H110	0.521700	0.625300	0.314200
C2011	C201	0.542380	0.559700	0.285000
C2021	C202	0.584610	0.537830	0.259060
C2031	C203	0.632940	0.564490	0.244590
H1111	H111	0.660300	0.549300	0.227000
C2041	C204	0.499700	0.521880	0.293570
C2051	C205	0.449330	0.520390	0.317250
H1121	H112	0.437700	0.548300	0.332900
C2061	C206	0.416460	0.476880	0.317400
H1131	H113	0.382200	0.476000	0.333200
C2071	C207	0.432780	0.434330	0.294700
C2081	C208	0.483690	0.435090	0.271660
H1141	H114	0.495700	0.406900	0.256500
C2091	C209	0.516880	0.479120	0.271530
C2101	C210	0.395190	0.387970	0.295260
C2111	C211	0.720100	0.686770	0.115900
C2121	C212	0.698710	0.698040	0.072740
C2131	C213	0.646180	0.724170	0.068200
H1151	H115	0.625800	0.733700	0.092400
C2141	C214	0.623410	0.736360	0.029300
H1161	H116	0.588400	0.753900	0.027100
C2151	C215	0.653940	0.721790	0.993190
C2161	C216	0.707740	0.696150	0.998220
C2171	C217	0.729640	0.684460	0.037560
H1171	H117	0.765000	0.667500	0.040200
C2181	C218	0.644320	0.727420	0.948350
C2191	C219	0.599860	0.747320	0.924400
H1181	H118	0.567600	0.761800	0.937600
C2201	C220	0.603000	0.745910	0.881120
H1191	H119	0.572800	0.759400	0.865000
C2211	C221	0.652010	0.724020	0.860980
C2221	C222	0.697070	0.704490	0.884470
H1201	H120	0.730000	0.691200	0.871400
C2231	C223	0.692310	0.705090	0.928160
C2241	C224	0.654690	0.721810	0.813820
Zn171	Zn17	0.750000	0.750000	0.751100
Zn181	Zn18	0.250000	0.250000	0.748900
Zn191	Zn19	0.250000	0.250000	0.248900
Zn201	Zn20	0.750000	0.750000	0.251100
