data_WILDUR_clean_PM
_symmetry_space_group_name_H-M	'P1'
_cell_length_a	17.007600
_cell_length_b	17.007600
_cell_length_c	7.859100
_cell_angle_alpha	90.000000
_cell_angle_beta	90.000000
_cell_angle_gamma	90.000000
_symmetry_Int_Tables_number 1

loop_
_symmetry_equiv_pos_as_xyz
'x,y,z'

loop_
_atom_site_label
_atom_site_type_symbol
_atom_site_fract_x
_atom_site_fract_y
_atom_site_fract_z
N11	N1	0.675100	0.186190	0.412400
N21	N2	0.755620	0.916470	0.412600
C11	C1	0.690300	0.121300	0.330900
H11	H1	0.687900	0.121900	0.211400
C21	C2	0.710200	0.050450	0.411900
C31	C3	0.733400	0.979800	0.331400
H21	H2	0.732900	0.978300	0.211800
N31	N3	0.324900	0.813810	0.412400
N41	N4	0.244380	0.083530	0.412600
C41	C4	0.309700	0.878700	0.330900
H31	H3	0.312100	0.878100	0.211400
C51	C5	0.289800	0.949550	0.411900
C61	C6	0.266600	0.020200	0.331400
H41	H4	0.267100	0.021700	0.211800
N51	N5	0.186190	0.675100	0.587600
N61	N6	0.916470	0.755620	0.587400
C71	C7	0.121300	0.690300	0.669100
H51	H5	0.121900	0.687900	0.788600
C81	C8	0.050450	0.710200	0.588100
C91	C9	0.979800	0.733400	0.668600
H61	H6	0.978300	0.732900	0.788200
N71	N7	0.813810	0.324900	0.587600
N81	N8	0.083530	0.244380	0.587400
C101	C10	0.878700	0.309700	0.669100
H71	H7	0.878100	0.312100	0.788600
C111	C11	0.949550	0.289800	0.588100
C121	C12	0.020200	0.266600	0.668600
H81	H8	0.021700	0.267100	0.788200
N91	N9	0.324900	0.813810	0.587600
N101	N10	0.244380	0.083530	0.587400
C131	C13	0.309700	0.878700	0.669100
H91	H9	0.312100	0.878100	0.788600
C141	C14	0.289800	0.949550	0.588100
C151	C15	0.266600	0.020200	0.668600
H101	H10	0.267100	0.021700	0.788200
N111	N11	0.675100	0.186190	0.587600
N121	N12	0.755620	0.916470	0.587400
C161	C16	0.690300	0.121300	0.669100
H111	H11	0.687900	0.121900	0.788600
C171	C17	0.710200	0.050450	0.588100
C181	C18	0.733400	0.979800	0.668600
H121	H12	0.732900	0.978300	0.788200
N131	N13	0.813810	0.324900	0.412400
N141	N14	0.083530	0.244380	0.412600
C191	C19	0.878700	0.309700	0.330900
H131	H13	0.878100	0.312100	0.211400
C201	C20	0.949550	0.289800	0.411900
C211	C21	0.020200	0.266600	0.331400
H141	H14	0.021700	0.267100	0.211800
N151	N15	0.186190	0.675100	0.412400
N161	N16	0.916470	0.755620	0.412600
C221	C22	0.121300	0.690300	0.330900
H151	H15	0.121900	0.687900	0.211400
C231	C23	0.050450	0.710200	0.411900
C241	C24	0.979800	0.733400	0.331400
H161	H16	0.978300	0.732900	0.211800
Ag11	Ag1	0.187350	0.187350	0.758930
N171	N17	0.099640	0.099640	0.913500
C251	C25	0.052200	0.052200	0.832600
H171	H17	0.053000	0.053000	0.713000
Ag21	Ag2	0.812650	0.812650	0.758930
N181	N18	0.900360	0.900360	0.913500
C261	C26	0.947800	0.947800	0.832600
H181	H18	0.947000	0.947000	0.713000
Ag31	Ag3	0.812650	0.812650	0.241070
N191	N19	0.900360	0.900360	0.086500
C271	C27	0.947800	0.947800	0.167400
H191	H19	0.947000	0.947000	0.287000
Ag41	Ag4	0.187350	0.187350	0.241070
N201	N20	0.099640	0.099640	0.086500
C281	C28	0.052200	0.052200	0.167400
H201	H20	0.053000	0.053000	0.287000
C291	C29	0.000000	0.000000	0.913400
C301	C30	0.000000	0.000000	0.086600
N211	N21	0.313810	0.175100	0.912400
N221	N22	0.583530	0.255620	0.912600
C311	C31	0.378700	0.190300	0.830900
H211	H21	0.378100	0.187900	0.711400
C321	C32	0.449550	0.210200	0.911900
C331	C33	0.520200	0.233400	0.831400
H221	H22	0.521700	0.232900	0.711800
N231	N23	0.686190	0.824900	0.912400
N241	N24	0.416470	0.744380	0.912600
C341	C34	0.621300	0.809700	0.830900
H231	H23	0.621900	0.812100	0.711400
C351	C35	0.550450	0.789800	0.911900
C361	C36	0.479800	0.766600	0.831400
H241	H24	0.478300	0.767100	0.711800
N251	N25	0.824900	0.686190	0.087600
N261	N26	0.744380	0.416470	0.087400
C371	C37	0.809700	0.621300	0.169100
H251	H25	0.812100	0.621900	0.288600
C381	C38	0.789800	0.550450	0.088100
C391	C39	0.766600	0.479800	0.168600
H261	H26	0.767100	0.478300	0.288200
N271	N27	0.175100	0.313810	0.087600
N281	N28	0.255620	0.583530	0.087400
C401	C40	0.190300	0.378700	0.169100
H271	H27	0.187900	0.378100	0.288600
C411	C41	0.210200	0.449550	0.088100
C421	C42	0.233400	0.520200	0.168600
H281	H28	0.232900	0.521700	0.288200
N291	N29	0.686190	0.824900	0.087600
N301	N30	0.416470	0.744380	0.087400
C431	C43	0.621300	0.809700	0.169100
H291	H29	0.621900	0.812100	0.288600
C441	C44	0.550450	0.789800	0.088100
C451	C45	0.479800	0.766600	0.168600
H301	H30	0.478300	0.767100	0.288200
N311	N31	0.313810	0.175100	0.087600
N321	N32	0.583530	0.255620	0.087400
C461	C46	0.378700	0.190300	0.169100
H311	H31	0.378100	0.187900	0.288600
C471	C47	0.449550	0.210200	0.088100
C481	C48	0.520200	0.233400	0.168600
H321	H32	0.521700	0.232900	0.288200
N331	N33	0.175100	0.313810	0.912400
N341	N34	0.255620	0.583530	0.912600
C491	C49	0.190300	0.378700	0.830900
H331	H33	0.187900	0.378100	0.711400
C501	C50	0.210200	0.449550	0.911900
C511	C51	0.233400	0.520200	0.831400
H341	H34	0.232900	0.521700	0.711800
N351	N35	0.824900	0.686190	0.912400
N361	N36	0.744380	0.416470	0.912600
C521	C52	0.809700	0.621300	0.830900
H351	H35	0.812100	0.621900	0.711400
C531	C53	0.789800	0.550450	0.911900
C541	C54	0.766600	0.479800	0.831400
H361	H36	0.767100	0.478300	0.711800
Ag51	Ag5	0.687350	0.312650	0.258930
N371	N37	0.599640	0.400360	0.413500
C551	C55	0.552200	0.447800	0.332600
H371	H37	0.553000	0.447000	0.213000
Ag61	Ag6	0.312650	0.687350	0.258930
N381	N38	0.400360	0.599640	0.413500
C561	C56	0.447800	0.552200	0.332600
H381	H38	0.447000	0.553000	0.213000
Ag71	Ag7	0.312650	0.687350	0.741070
N391	N39	0.400360	0.599640	0.586500
C571	C57	0.447800	0.552200	0.667400
H391	H39	0.447000	0.553000	0.787000
Ag81	Ag8	0.687350	0.312650	0.741070
N401	N40	0.599640	0.400360	0.586500
C581	C58	0.552200	0.447800	0.667400
H401	H40	0.553000	0.447000	0.787000
C591	C59	0.500000	0.500000	0.413400
C601	C60	0.500000	0.500000	0.586600
