data_WILGEE_charged_PM
_symmetry_space_group_name_H-M	'P1'
_cell_length_a	7.738500
_cell_length_b	19.472800
_cell_length_c	25.696300
_cell_angle_alpha	88.285600
_cell_angle_beta	81.340000
_cell_angle_gamma	78.539300
_symmetry_Int_Tables_number 1

loop_
_symmetry_equiv_pos_as_xyz
'x,y,z'

loop_
_atom_site_label
_atom_site_type_symbol
_atom_site_fract_x
_atom_site_fract_y
_atom_site_fract_z
Si11	Si1	0.772630	0.454740	0.750000
F11	F1	0.967820	0.461540	0.772620
F21	F2	0.669550	0.520000	0.795500
F31	F3	0.741270	0.390100	0.793960
F41	F4	0.570640	0.461540	0.727380
F51	F5	0.810450	0.520000	0.704500
F61	F6	0.868630	0.390100	0.706040
Si21	Si2	0.977370	0.045260	0.750000
F71	F7	0.759560	0.038460	0.772620
F81	F8	0.034950	0.980000	0.795500
F91	F9	0.964770	0.109900	0.793960
F101	F10	0.201980	0.038460	0.727380
F111	F11	0.985050	0.980000	0.704500
F121	F12	0.925330	0.109900	0.706040
Si31	Si3	0.227370	0.545260	0.250000
F131	F13	0.032180	0.538460	0.227380
F141	F14	0.330450	0.480000	0.204500
F151	F15	0.258730	0.609900	0.206040
F161	F16	0.429360	0.538460	0.272620
F171	F17	0.189550	0.480000	0.295500
F181	F18	0.131370	0.609900	0.293960
Si41	Si4	0.022630	0.954740	0.250000
F191	F19	0.240440	0.961540	0.227380
F201	F20	0.965050	0.020000	0.204500
F211	F21	0.035230	0.890100	0.206040
F221	F22	0.798020	0.961540	0.272620
F231	F23	0.014950	0.020000	0.295500
F241	F24	0.074670	0.890100	0.293960
Si51	Si5	0.308950	0.750000	0.882100
F251	F25	0.376390	0.693700	0.929520
F261	F26	0.419610	0.691860	0.837320
F271	F27	0.126990	0.716040	0.883180
F281	F28	0.194090	0.806300	0.929520
F291	F29	0.243070	0.808140	0.837320
F301	F30	0.489830	0.783960	0.883180
Si61	Si6	0.941050	0.750000	0.617900
F311	F31	0.929910	0.693700	0.570480
F321	F32	0.888530	0.691860	0.662680
F331	F33	0.156970	0.716040	0.616820
F341	F34	0.999610	0.806300	0.570480
F351	F35	0.948790	0.808140	0.662680
F361	F36	0.726210	0.783960	0.616820
Si71	Si7	0.691050	0.250000	0.117900
F371	F37	0.623610	0.306300	0.070480
F381	F38	0.580390	0.308140	0.162680
F391	F39	0.873010	0.283960	0.116820
F401	F40	0.805910	0.193700	0.070480
F411	F41	0.756930	0.191860	0.162680
F421	F42	0.510170	0.216040	0.116820
Si81	Si8	0.058950	0.250000	0.382100
F431	F43	0.070090	0.306300	0.429520
F441	F44	0.111470	0.308140	0.337320
F451	F45	0.843030	0.283960	0.383180
F461	F46	0.000390	0.193700	0.429520
F471	F47	0.051210	0.191860	0.337320
F481	F48	0.273790	0.216040	0.383180
Ag11	Ag1	0.769530	0.466090	0.061240
Ag21	Ag2	0.227080	0.430700	0.052780
Ag31	Ag3	0.669220	0.033920	0.061240
Ag41	Ag4	0.220140	0.069300	0.052780
Ag51	Ag5	0.764380	0.466090	0.438750
Ag61	Ag6	0.342220	0.430700	0.447220
Ag71	Ag7	0.296870	0.033910	0.438750
Ag81	Ag8	0.710560	0.069300	0.447220
Ag91	Ag9	0.230470	0.533910	0.938760
Ag101	Ag10	0.772920	0.569300	0.947220
Ag111	Ag11	0.330780	0.966080	0.938760
Ag121	Ag12	0.779860	0.930700	0.947220
Ag131	Ag13	0.235620	0.533910	0.561250
Ag141	Ag14	0.657780	0.569300	0.552780
Ag151	Ag15	0.703140	0.966080	0.561250
Ag161	Ag16	0.289440	0.930700	0.552780
H11	H1	0.938000	0.443000	0.863800
H21	H2	0.036500	0.323200	0.855400
H31	H3	0.911400	0.311600	0.011600
H41	H4	0.157300	0.087600	0.860600
H51	H5	0.043100	0.206600	0.855800
H61	H6	0.081900	0.214600	0.007600
H71	H7	0.259300	0.348200	0.163800
H81	H8	0.094000	0.339200	0.245600
H91	H9	0.674500	0.445200	0.185200
H101	H10	0.698200	0.057000	0.863800
H111	H11	0.608100	0.176800	0.855400
H121	H12	0.577000	0.188400	0.011600
H131	H13	0.482100	0.412400	0.860600
H141	H14	0.601100	0.293400	0.855800
H151	H15	0.410500	0.285400	0.007600
H161	H16	0.076900	0.151800	0.163800
H171	H17	0.160400	0.160800	0.245600
H181	H18	0.640300	0.054800	0.185200
H191	H19	0.619000	0.443000	0.636200
H201	H20	0.640300	0.323200	0.644600
H211	H21	0.777000	0.311600	0.488400
H221	H22	0.755100	0.087600	0.639400
H231	H23	0.750300	0.206600	0.644200
H241	H24	0.703500	0.214600	0.492400
H251	H25	0.392500	0.348200	0.336200
H261	H26	0.566800	0.339200	0.254400
H271	H27	0.880300	0.445200	0.314800
H281	H28	0.244800	0.057000	0.636200
H291	H29	0.215100	0.176800	0.644600
H301	H30	0.234600	0.188400	0.488400
H311	H31	0.105500	0.412400	0.639400
H321	H32	0.105500	0.293400	0.644200
H331	H33	0.304100	0.285400	0.492400
H341	H34	0.771300	0.151800	0.336200
H351	H35	0.678800	0.160800	0.254400
H361	H36	0.304900	0.054800	0.314800
H371	H37	0.062000	0.557000	0.136200
H381	H38	0.963500	0.676800	0.144600
H391	H39	0.088600	0.688400	0.988400
H401	H40	0.842700	0.912400	0.139400
H411	H41	0.956900	0.793400	0.144200
H421	H42	0.918100	0.785400	0.992400
H431	H43	0.740700	0.651800	0.836200
H441	H44	0.906000	0.660800	0.754400
H451	H45	0.325500	0.554800	0.814800
H461	H46	0.301800	0.943000	0.136200
H471	H47	0.391900	0.823200	0.144600
H481	H48	0.423000	0.811600	0.988400
H491	H49	0.517900	0.587600	0.139400
H501	H50	0.398900	0.706600	0.144200
H511	H51	0.589500	0.714600	0.992400
H521	H52	0.923100	0.848200	0.836200
H531	H53	0.839600	0.839200	0.754400
H541	H54	0.359700	0.945200	0.814800
H551	H55	0.381000	0.557000	0.363800
H561	H56	0.359700	0.676800	0.355400
H571	H57	0.223000	0.688400	0.511600
H581	H58	0.244900	0.912400	0.360600
H591	H59	0.249700	0.793400	0.355800
H601	H60	0.296500	0.785400	0.507600
H611	H61	0.607500	0.651800	0.663800
H621	H62	0.433200	0.660800	0.745600
H631	H63	0.119700	0.554800	0.685200
H641	H64	0.755200	0.943000	0.363800
H651	H65	0.784900	0.823200	0.355400
H661	H66	0.765400	0.811600	0.511600
H671	H67	0.894500	0.587600	0.360600
H681	H68	0.894500	0.706600	0.355800
H691	H69	0.695900	0.714600	0.507600
H701	H70	0.228700	0.848200	0.663800
H711	H71	0.321200	0.839200	0.745600
H721	H72	0.695100	0.945200	0.685200
C11	C1	0.937000	0.415400	0.894000
C21	C2	0.994810	0.343320	0.888460
C31	C3	0.988570	0.302800	0.933260
C41	C4	0.920870	0.338000	0.980860
C51	C5	0.143880	0.114920	0.890520
C61	C6	0.074190	0.186400	0.887220
C71	C7	0.053080	0.225840	0.931800
C81	C8	0.099200	0.189580	0.976420
C91	C9	0.138950	0.368820	0.169080
C101	C10	0.041000	0.362480	0.218120
C111	C11	0.864210	0.391720	0.224660
C121	C12	0.795600	0.425860	0.181540
C131	C13	0.669000	0.084600	0.894000
C141	C14	0.616730	0.156680	0.888460
C151	C15	0.578170	0.197200	0.933260
C161	C16	0.598270	0.162000	0.980860
C171	C17	0.465600	0.385080	0.890520
C181	C18	0.538590	0.313600	0.887220
C191	C19	0.515120	0.274160	0.931800
C201	C20	0.424380	0.310420	0.976420
C211	C21	0.191970	0.131180	0.169080
C221	C22	0.240880	0.137520	0.218120
C231	C23	0.411130	0.108280	0.224660
C241	C24	0.522860	0.074140	0.181540
C251	C25	0.647600	0.415400	0.606000
C261	C26	0.661870	0.343320	0.611540
C271	C27	0.708630	0.302800	0.566740
C281	C28	0.741130	0.338000	0.519140
C291	C29	0.741200	0.114920	0.609480
C301	C30	0.739410	0.186400	0.612780
C311	C31	0.721080	0.225840	0.568200
C321	C32	0.711220	0.189580	0.523580
C331	C33	0.492230	0.368820	0.330920
C341	C34	0.596520	0.362480	0.281880
C351	C35	0.744070	0.391720	0.275340
C361	C36	0.778540	0.425860	0.318460
C371	C37	0.246400	0.084600	0.606000
C381	C38	0.226590	0.156680	0.611540
C391	C39	0.224630	0.197200	0.566740
C401	C40	0.239730	0.162000	0.519140
C411	C41	0.149320	0.385080	0.609480
C421	C42	0.147810	0.313600	0.612780
C431	C43	0.210720	0.274160	0.568200
C441	C44	0.265200	0.310420	0.523580
C451	C45	0.676850	0.131180	0.330920
C461	C46	0.621600	0.137520	0.281880
C471	C47	0.480590	0.108280	0.275340
C481	C48	0.403000	0.074140	0.318460
C491	C49	0.063000	0.584600	0.106000
C501	C50	0.005190	0.656680	0.111540
C511	C51	0.011430	0.697200	0.066740
C521	C52	0.079130	0.662000	0.019140
C531	C53	0.856120	0.885080	0.109480
C541	C54	0.925810	0.813600	0.112780
C551	C55	0.946920	0.774160	0.068200
C561	C56	0.900800	0.810420	0.023580
C571	C57	0.861050	0.631180	0.830920
C581	C58	0.959000	0.637520	0.781880
C591	C59	0.135790	0.608280	0.775340
C601	C60	0.204400	0.574140	0.818460
C611	C61	0.331000	0.915400	0.106000
C621	C62	0.383270	0.843320	0.111540
C631	C63	0.421830	0.802800	0.066740
C641	C64	0.401730	0.838000	0.019140
C651	C65	0.534400	0.614920	0.109480
C661	C66	0.461410	0.686400	0.112780
C671	C67	0.484880	0.725840	0.068200
C681	C68	0.575620	0.689580	0.023580
C691	C69	0.808030	0.868820	0.830920
C701	C70	0.759120	0.862480	0.781880
C711	C71	0.588870	0.891720	0.775340
C721	C72	0.477140	0.925860	0.818460
C731	C73	0.352400	0.584600	0.394000
C741	C74	0.338130	0.656680	0.388460
C751	C75	0.291370	0.697200	0.433260
C761	C76	0.258870	0.662000	0.480860
C771	C77	0.258800	0.885080	0.390520
C781	C78	0.260590	0.813600	0.387220
C791	C79	0.278920	0.774160	0.431800
C801	C80	0.288780	0.810420	0.476420
C811	C81	0.507770	0.631180	0.669080
C821	C82	0.403480	0.637520	0.718120
C831	C83	0.255930	0.608280	0.724660
C841	C84	0.221460	0.574140	0.681540
C851	C85	0.753600	0.915400	0.394000
C861	C86	0.773410	0.843320	0.388460
C871	C87	0.775370	0.802800	0.433260
C881	C88	0.760270	0.838000	0.480860
C891	C89	0.850680	0.614920	0.390520
C901	C90	0.852190	0.686400	0.387220
C911	C91	0.789280	0.725840	0.431800
C921	C92	0.734800	0.689580	0.476420
C931	C93	0.323150	0.868820	0.669080
C941	C94	0.378400	0.862480	0.718120
C951	C95	0.519410	0.891720	0.724660
C961	C96	0.597000	0.925860	0.681540
N11	N1	0.869530	0.407000	0.984340
N21	N2	0.879710	0.447100	0.940880
N31	N3	0.166620	0.121340	0.977620
N41	N4	0.192100	0.083700	0.934100
N51	N5	0.069680	0.402940	0.129300
N61	N6	0.894960	0.432020	0.135660
N71	N7	0.646130	0.093000	0.984340
N81	N8	0.679410	0.052900	0.940880
N91	N9	0.355760	0.378660	0.977620
N101	N10	0.373800	0.416300	0.934100
N111	N11	0.301020	0.097060	0.129300
N121	N12	0.469380	0.067980	0.135660
N131	N13	0.723470	0.407000	0.515660
N141	N14	0.673190	0.447100	0.559120
N151	N15	0.712040	0.121340	0.522380
N161	N16	0.724200	0.083700	0.565900
N171	N17	0.527380	0.402940	0.370700
N181	N18	0.673020	0.432020	0.364340
N191	N19	0.260870	0.093000	0.515660
N201	N20	0.267690	0.052900	0.559120
N211	N21	0.265580	0.378660	0.522380
N221	N22	0.209900	0.416300	0.565900
N231	N23	0.601920	0.097060	0.370700
N241	N24	0.462640	0.067980	0.364340
N251	N25	0.130470	0.593000	0.015660
N261	N26	0.120290	0.552900	0.059120
N271	N27	0.833380	0.878660	0.022380
N281	N28	0.807900	0.916300	0.065900
N291	N29	0.930320	0.597060	0.870700
N301	N30	0.105040	0.567980	0.864340
N311	N31	0.353870	0.907000	0.015660
N321	N32	0.320590	0.947100	0.059120
N331	N33	0.644240	0.621340	0.022380
N341	N34	0.626200	0.583700	0.065900
N351	N35	0.698980	0.902940	0.870700
N361	N36	0.530620	0.932020	0.864340
N371	N37	0.276530	0.593000	0.484340
N381	N38	0.326810	0.552900	0.440880
N391	N39	0.287960	0.878660	0.477620
N401	N40	0.275800	0.916300	0.434100
N411	N41	0.472620	0.597060	0.629300
N421	N42	0.326980	0.567980	0.635660
N431	N43	0.739130	0.907000	0.484340
N441	N44	0.732310	0.947100	0.440880
N451	N45	0.734420	0.621340	0.477620
N461	N46	0.790100	0.583700	0.434100
N471	N47	0.398080	0.902940	0.629300
N481	N48	0.537360	0.932020	0.635660
