data_WILHIK_clean_PM
_symmetry_space_group_name_H-M	'P1'
_cell_length_a	9.775000
_cell_length_b	18.958000
_cell_length_c	11.469000
_cell_angle_alpha	90.000000
_cell_angle_beta	111.354000
_cell_angle_gamma	90.000000
_symmetry_Int_Tables_number 1

loop_
_symmetry_equiv_pos_as_xyz
'x,y,z'

loop_
_atom_site_label
_atom_site_type_symbol
_atom_site_fract_x
_atom_site_fract_y
_atom_site_fract_z
Zn11	Zn1	0.364990	0.994430	0.546540
O11	O1	0.361480	0.077600	0.650140
O21	O2	0.136690	0.058590	0.655170
O31	O3	0.162350	0.399500	0.895760
O41	O4	0.403610	0.403150	0.927530
O51	O5	0.406410	0.009790	0.386350
O61	O6	0.155120	0.012800	0.419420
N11	N1	0.162250	0.067850	0.079340
C11	C1	0.249420	0.094920	0.674980
C21	C2	0.257410	0.166270	0.735260
C31	C3	0.392570	0.195260	0.807590
H11	H1	0.480200	0.169400	0.820900
C41	C4	0.400090	0.261720	0.860400
H21	H2	0.492700	0.281100	0.909900
C51	C5	0.271760	0.300060	0.840770
C61	C6	0.136420	0.270340	0.770290
H31	H3	0.048700	0.295900	0.758000
C71	C7	0.128480	0.203650	0.717860
H41	H4	0.035800	0.183600	0.670400
C81	C8	0.281350	0.373690	0.893170
C91	C9	0.288730	0.029600	0.289150
C101	C10	0.152000	0.031570	0.309630
C111	C11	0.025540	0.053470	0.210950
H51	H5	0.933900	0.055500	0.222100
C121	C12	0.034130	0.071990	0.098590
H61	H6	0.948400	0.088000	0.032900
C131	C13	0.289950	0.045280	0.171580
C141	C14	0.164300	0.091940	0.957560
H71	H7	0.065300	0.106800	0.903800
H81	H8	0.196700	0.053200	0.917200
H91	H9	0.232100	0.131800	0.970800
C151	C15	0.424220	0.037240	0.138770
H101	H10	0.399300	0.010500	0.060600
H111	H11	0.500200	0.011900	0.206100
H121	H12	0.461000	0.084000	0.128100
Zn21	Zn2	0.135010	0.494430	0.953460
O71	O7	0.138520	0.577600	0.849860
O81	O8	0.363310	0.558590	0.844830
O91	O9	0.337650	0.899500	0.604240
O101	O10	0.096390	0.903150	0.572470
O111	O11	0.093590	0.509790	0.113650
O121	O12	0.344880	0.512800	0.080580
N21	N2	0.337750	0.567850	0.420660
C161	C16	0.250580	0.594920	0.825020
C171	C17	0.242590	0.666270	0.764740
C181	C18	0.107430	0.695260	0.692410
H131	H13	0.019800	0.669400	0.679100
C191	C19	0.099910	0.761720	0.639600
H141	H14	0.007300	0.781100	0.590100
C201	C20	0.228240	0.800060	0.659230
C211	C21	0.363580	0.770340	0.729710
H151	H15	0.451300	0.795900	0.742000
C221	C22	0.371520	0.703650	0.782140
H161	H16	0.464200	0.683600	0.829600
C231	C23	0.218650	0.873690	0.606830
C241	C24	0.211270	0.529600	0.210850
C251	C25	0.348000	0.531570	0.190370
C261	C26	0.474460	0.553470	0.289050
H171	H17	0.566100	0.555500	0.277900
C271	C27	0.465870	0.571990	0.401410
H181	H18	0.551600	0.588000	0.467100
C281	C28	0.210050	0.545280	0.328420
C291	C29	0.335700	0.591940	0.542440
H191	H19	0.434700	0.606800	0.596200
H201	H20	0.303300	0.553200	0.582800
H211	H21	0.267900	0.631800	0.529200
C301	C30	0.075780	0.537240	0.361230
H221	H22	0.100700	0.510500	0.439400
H231	H23	0.999800	0.511900	0.293900
H241	H24	0.039000	0.584000	0.371900
Zn31	Zn3	0.635010	0.005570	0.453460
O131	O13	0.638520	0.922400	0.349860
O141	O14	0.863310	0.941410	0.344830
O151	O15	0.837650	0.600500	0.104240
O161	O16	0.596390	0.596850	0.072470
O171	O17	0.593590	0.990210	0.613650
O181	O18	0.844880	0.987200	0.580580
N31	N3	0.837750	0.932150	0.920660
C311	C31	0.750580	0.905080	0.325020
C321	C32	0.742590	0.833730	0.264740
C331	C33	0.607430	0.804740	0.192410
H251	H25	0.519800	0.830600	0.179100
C341	C34	0.599910	0.738280	0.139600
H261	H26	0.507300	0.718900	0.090100
C351	C35	0.728240	0.699940	0.159230
C361	C36	0.863580	0.729660	0.229710
H271	H27	0.951300	0.704100	0.242000
C371	C37	0.871520	0.796350	0.282140
H281	H28	0.964200	0.816400	0.329600
C381	C38	0.718650	0.626310	0.106830
C391	C39	0.711270	0.970400	0.710850
C401	C40	0.848000	0.968430	0.690370
C411	C41	0.974460	0.946530	0.789050
H291	H29	0.066100	0.944500	0.777900
C421	C42	0.965870	0.928010	0.901410
H301	H30	0.051600	0.912000	0.967100
C431	C43	0.710050	0.954720	0.828420
C441	C44	0.835700	0.908060	0.042440
H311	H31	0.934700	0.893200	0.096200
H321	H32	0.803300	0.946800	0.082800
H331	H33	0.767900	0.868200	0.029200
C451	C45	0.575780	0.962760	0.861230
H341	H34	0.600700	0.989500	0.939400
H351	H35	0.499800	0.988100	0.793900
H361	H36	0.539000	0.916000	0.871900
Zn41	Zn4	0.864990	0.505570	0.046540
O191	O19	0.861480	0.422400	0.150140
O201	O20	0.636690	0.441410	0.155170
O211	O21	0.662350	0.100500	0.395760
O221	O22	0.903610	0.096850	0.427530
O231	O23	0.906410	0.490210	0.886350
O241	O24	0.655120	0.487200	0.919420
N41	N4	0.662250	0.432150	0.579340
C461	C46	0.749420	0.405080	0.174980
C471	C47	0.757410	0.333730	0.235260
C481	C48	0.892570	0.304740	0.307590
H371	H37	0.980200	0.330600	0.320900
C491	C49	0.900090	0.238280	0.360400
H381	H38	0.992700	0.218900	0.409900
C501	C50	0.771760	0.199940	0.340770
C511	C51	0.636420	0.229660	0.270290
H391	H39	0.548700	0.204100	0.258000
C521	C52	0.628480	0.296350	0.217860
H401	H40	0.535800	0.316400	0.170400
C531	C53	0.781350	0.126310	0.393170
C541	C54	0.788730	0.470400	0.789150
C551	C55	0.652000	0.468430	0.809630
C561	C56	0.525540	0.446530	0.710950
H411	H41	0.433900	0.444500	0.722100
C571	C57	0.534130	0.428010	0.598590
H421	H42	0.448400	0.412000	0.532900
C581	C58	0.789950	0.454720	0.671580
C591	C59	0.664300	0.408060	0.457560
H431	H43	0.565300	0.393200	0.403800
H441	H44	0.696700	0.446800	0.417200
H451	H45	0.732100	0.368200	0.470800
C601	C60	0.924220	0.462760	0.638770
H461	H46	0.899300	0.489500	0.560600
H471	H47	0.000200	0.488100	0.706100
H481	H48	0.961000	0.416000	0.628100
Zn51	Zn5	0.000000	0.000000	0.500000
Zn61	Zn6	0.500000	0.500000	0.000000
