data_WILREO_clean_PM
_symmetry_space_group_name_H-M	'P1'
_cell_length_a	15.762000
_cell_length_b	15.762000
_cell_length_c	15.762000
_cell_angle_alpha	90.000000
_cell_angle_beta	90.000000
_cell_angle_gamma	90.000000
_symmetry_Int_Tables_number 1

loop_
_symmetry_equiv_pos_as_xyz
'x,y,z'

loop_
_atom_site_label
_atom_site_type_symbol
_atom_site_fract_x
_atom_site_fract_y
_atom_site_fract_z
N11	N1	0.238500	0.375800	0.082600
C11	C1	0.230100	0.319000	0.123800
N21	N2	0.761500	0.624200	0.082600
C21	C2	0.769900	0.681000	0.123800
N31	N3	0.761500	0.375800	0.917400
C31	C3	0.769900	0.319000	0.876200
N41	N4	0.238500	0.624200	0.917400
C41	C4	0.230100	0.681000	0.876200
N51	N5	0.082600	0.238500	0.375800
C51	C5	0.123800	0.230100	0.319000
N61	N6	0.082600	0.761500	0.624200
C61	C6	0.123800	0.769900	0.681000
N71	N7	0.917400	0.761500	0.375800
C71	C7	0.876200	0.769900	0.319000
N81	N8	0.917400	0.238500	0.624200
C81	C8	0.876200	0.230100	0.681000
N91	N9	0.375800	0.082600	0.238500
C91	C9	0.319000	0.123800	0.230100
N101	N10	0.624200	0.082600	0.761500
C101	C10	0.681000	0.123800	0.769900
N111	N11	0.375800	0.917400	0.761500
C111	C11	0.319000	0.876200	0.769900
N121	N12	0.624200	0.917400	0.238500
C121	C12	0.681000	0.876200	0.230100
N131	N13	0.875800	0.738500	0.582600
C131	C13	0.819000	0.730100	0.623800
N141	N14	0.124200	0.261500	0.582600
C141	C14	0.181000	0.269900	0.623800
N151	N15	0.875800	0.261500	0.417400
C151	C15	0.819000	0.269900	0.376200
N161	N16	0.124200	0.738500	0.417400
C161	C16	0.181000	0.730100	0.376200
N171	N17	0.738500	0.582600	0.875800
C171	C17	0.730100	0.623800	0.819000
N181	N18	0.261500	0.582600	0.124200
C181	C18	0.269900	0.623800	0.181000
N191	N19	0.261500	0.417400	0.875800
C191	C19	0.269900	0.376200	0.819000
N201	N20	0.738500	0.417400	0.124200
C201	C20	0.730100	0.376200	0.181000
N211	N21	0.582600	0.875800	0.738500
C211	C21	0.623800	0.819000	0.730100
N221	N22	0.582600	0.124200	0.261500
C221	C22	0.623800	0.181000	0.269900
N231	N23	0.417400	0.875800	0.261500
C231	C23	0.376200	0.819000	0.269900
N241	N24	0.417400	0.124200	0.738500
C241	C24	0.376200	0.181000	0.730100
Cd11	Cd1	0.250000	0.500000	0.000000
Cd21	Cd2	0.750000	0.500000	0.000000
Cd31	Cd3	0.000000	0.250000	0.500000
Cd41	Cd4	0.000000	0.750000	0.500000
Cd51	Cd5	0.500000	0.000000	0.250000
Cd61	Cd6	0.500000	0.000000	0.750000
Cd71	Cd7	0.000000	0.000000	0.000000
Cd81	Cd8	0.500000	0.500000	0.500000
Cd91	Cd9	0.206870	0.206870	0.206870
C251	C25	0.082500	0.082500	0.082500
C261	C26	0.123800	0.123800	0.123800
Cd101	Cd10	0.793130	0.793130	0.206870
C271	C27	0.917500	0.917500	0.082500
C281	C28	0.876200	0.876200	0.123800
Cd111	Cd11	0.793130	0.206870	0.793130
C291	C29	0.917500	0.082500	0.917500
C301	C30	0.876200	0.123800	0.876200
Cd121	Cd12	0.206870	0.793130	0.793130
C311	C31	0.082500	0.917500	0.917500
C321	C32	0.123800	0.876200	0.876200
Cd131	Cd13	0.706870	0.706870	0.706870
C331	C33	0.582500	0.582500	0.582500
C341	C34	0.623800	0.623800	0.623800
Cd141	Cd14	0.293130	0.293130	0.706870
C351	C35	0.417500	0.417500	0.582500
C361	C36	0.376200	0.376200	0.623800
Cd151	Cd15	0.706870	0.293130	0.293130
C371	C37	0.582500	0.417500	0.417500
C381	C38	0.623800	0.376200	0.376200
Cd161	Cd16	0.293130	0.706870	0.293130
C391	C39	0.417500	0.582500	0.417500
C401	C40	0.376200	0.623800	0.376200
