data_WILRIS_clean_PM
_symmetry_space_group_name_H-M	'P1'
_cell_length_a	14.044000
_cell_length_b	18.034000
_cell_length_c	12.931000
_cell_angle_alpha	90.000000
_cell_angle_beta	111.470000
_cell_angle_gamma	90.000000
_symmetry_Int_Tables_number 1

loop_
_symmetry_equiv_pos_as_xyz
'x,y,z'

loop_
_atom_site_label
_atom_site_type_symbol
_atom_site_fract_x
_atom_site_fract_y
_atom_site_fract_z
Cd11	Cd1	0.425650	0.360080	0.420640
N11	N1	0.172100	0.368800	0.310900
C11	C1	0.258700	0.368100	0.344700
N21	N2	0.008600	0.269000	0.384600
C21	C2	0.473700	0.274300	0.548800
C31	C3	0.484800	0.470100	0.484600
C41	C4	0.487900	0.344700	0.287100
Cd21	Cd2	0.925650	0.860080	0.420640
N31	N3	0.672100	0.868800	0.310900
C51	C5	0.758700	0.868100	0.344700
N41	N4	0.508600	0.769000	0.384600
C61	C6	0.973700	0.774300	0.548800
C71	C7	0.984800	0.970100	0.484600
C81	C8	0.987900	0.844700	0.287100
Cd31	Cd3	0.574350	0.360080	0.079360
N51	N5	0.827900	0.368800	0.189100
C91	C9	0.741300	0.368100	0.155300
N61	N6	0.991400	0.269000	0.115400
C101	C10	0.526300	0.274300	0.951200
C111	C11	0.515200	0.470100	0.015400
C121	C12	0.512100	0.344700	0.212900
Cd41	Cd4	0.074350	0.860080	0.079360
N71	N7	0.327900	0.868800	0.189100
C131	C13	0.241300	0.868100	0.155300
N81	N8	0.491400	0.769000	0.115400
C141	C14	0.026300	0.774300	0.951200
C151	C15	0.015200	0.970100	0.015400
C161	C16	0.012100	0.844700	0.212900
Cd51	Cd5	0.574350	0.639920	0.579360
N91	N9	0.827900	0.631200	0.689100
C171	C17	0.741300	0.631900	0.655300
N101	N10	0.991400	0.731000	0.615400
C181	C18	0.526300	0.725700	0.451200
C191	C19	0.515200	0.529900	0.515400
C201	C20	0.512100	0.655300	0.712900
Cd61	Cd6	0.074350	0.139920	0.579360
N111	N11	0.327900	0.131200	0.689100
C211	C21	0.241300	0.131900	0.655300
N121	N12	0.491400	0.231000	0.615400
C221	C22	0.026300	0.225700	0.451200
C231	C23	0.015200	0.029900	0.515400
C241	C24	0.012100	0.155300	0.712900
Cd71	Cd7	0.425650	0.639920	0.920640
N131	N13	0.172100	0.631200	0.810900
C251	C25	0.258700	0.631900	0.844700
N141	N14	0.008600	0.731000	0.884600
C261	C26	0.473700	0.725700	0.048800
C271	C27	0.484800	0.529900	0.984600
C281	C28	0.487900	0.655300	0.787100
Cd81	Cd8	0.925650	0.139920	0.920640
N151	N15	0.672100	0.131200	0.810900
C291	C29	0.758700	0.131900	0.844700
N161	N16	0.508600	0.231000	0.884600
C301	C30	0.973700	0.225700	0.048800
C311	C31	0.984800	0.029900	0.984600
C321	C32	0.987900	0.155300	0.787100
Cd91	Cd9	0.000000	0.354480	0.250000
Cd101	Cd10	0.500000	0.854480	0.250000
Cd111	Cd11	0.000000	0.645520	0.750000
Cd121	Cd12	0.500000	0.145520	0.750000
