data_WIMWEW_clean_PM
_symmetry_space_group_name_H-M	'P1'
_cell_length_a	13.933500
_cell_length_b	14.102000
_cell_length_c	24.572200
_cell_angle_alpha	90.000000
_cell_angle_beta	90.000000
_cell_angle_gamma	90.000000
_symmetry_Int_Tables_number 1

loop_
_symmetry_equiv_pos_as_xyz
'x,y,z'

loop_
_atom_site_label
_atom_site_type_symbol
_atom_site_fract_x
_atom_site_fract_y
_atom_site_fract_z
Co11	Co1	0.430120	0.095940	0.626720
O11	O1	0.303900	0.157300	0.592490
O21	O2	0.381100	0.053800	0.544550
O31	O3	0.086000	0.382100	0.482950
O41	O4	0.038400	0.331500	0.401220
O51	O5	0.467500	0.963100	0.643800
O61	O6	0.541100	0.925500	0.565990
O71	O7	0.558900	0.775500	0.806570
O81	O8	0.585400	0.622100	0.794360
C11	C1	0.250700	0.132500	0.500500
C21	C2	0.196900	0.215300	0.496860
H11	H1	0.196800	0.258200	0.525600
C31	C3	0.143400	0.234400	0.450450
C41	C4	0.142900	0.168800	0.407960
H21	H2	0.107500	0.181200	0.376600
C51	C5	0.194600	0.086000	0.412200
H31	H3	0.192600	0.042100	0.384000
C61	C6	0.249400	0.067300	0.457920
H41	H4	0.285100	0.011700	0.460200
C71	C7	0.315100	0.114600	0.548060
C81	C8	0.084700	0.324200	0.445060
C91	C9	0.552900	0.818600	0.638120
C101	C10	0.546700	0.802800	0.693840
H51	H5	0.519000	0.848500	0.716100
C111	C11	0.581500	0.719800	0.716560
C121	C12	0.622200	0.651600	0.683300
H61	H6	0.645300	0.595500	0.698200
C131	C13	0.628700	0.667300	0.627500
H71	H7	0.655500	0.621100	0.605200
C141	C14	0.595500	0.751100	0.604900
H81	H8	0.601700	0.762100	0.567800
C151	C15	0.517300	0.909400	0.613670
C161	C16	0.574800	0.706000	0.777240
Co21	Co2	0.069880	0.904060	0.126720
O91	O9	0.196100	0.842700	0.092490
O101	O10	0.118900	0.946200	0.044550
O111	O11	0.414000	0.617900	0.982950
O121	O12	0.461600	0.668500	0.901220
O131	O13	0.032500	0.036900	0.143800
O141	O14	0.958900	0.074500	0.065990
O151	O15	0.941100	0.224500	0.306570
O161	O16	0.914600	0.377900	0.294360
C171	C17	0.249300	0.867500	0.000500
C181	C18	0.303100	0.784700	0.996860
H91	H9	0.303200	0.741800	0.025600
C191	C19	0.356600	0.765600	0.950450
C201	C20	0.357100	0.831200	0.907960
H101	H10	0.392500	0.818800	0.876600
C211	C21	0.305400	0.914000	0.912200
H111	H11	0.307400	0.957900	0.884000
C221	C22	0.250600	0.932700	0.957920
H121	H12	0.214900	0.988300	0.960200
C231	C23	0.184900	0.885400	0.048060
C241	C24	0.415300	0.675800	0.945060
C251	C25	0.947100	0.181400	0.138120
C261	C26	0.953300	0.197200	0.193840
H131	H13	0.981000	0.151500	0.216100
C271	C27	0.918500	0.280200	0.216560
C281	C28	0.877800	0.348400	0.183300
H141	H14	0.854700	0.404500	0.198200
C291	C29	0.871300	0.332700	0.127500
H151	H15	0.844500	0.378900	0.105200
C301	C30	0.904500	0.248900	0.104900
H161	H16	0.898300	0.237900	0.067800
C311	C31	0.982700	0.090600	0.113670
C321	C32	0.925200	0.294000	0.277240
Co31	Co3	0.569880	0.595940	0.873280
O171	O17	0.696100	0.657300	0.907510
O181	O18	0.618900	0.553800	0.955450
O191	O19	0.914000	0.882100	0.017050
O201	O20	0.961600	0.831500	0.098780
O211	O21	0.532500	0.463100	0.856200
O221	O22	0.458900	0.425500	0.934010
O231	O23	0.441100	0.275500	0.693430
O241	O24	0.414600	0.122100	0.705640
C331	C33	0.749300	0.632500	0.999500
C341	C34	0.803100	0.715300	0.003140
H171	H17	0.803200	0.758200	0.974400
C351	C35	0.856600	0.734400	0.049550
C361	C36	0.857100	0.668800	0.092040
H181	H18	0.892500	0.681200	0.123400
C371	C37	0.805400	0.586000	0.087800
H191	H19	0.807400	0.542100	0.116000
C381	C38	0.750600	0.567300	0.042080
H201	H20	0.714900	0.511700	0.039800
C391	C39	0.684900	0.614600	0.951940
C401	C40	0.915300	0.824200	0.054940
C411	C41	0.447100	0.318600	0.861880
C421	C42	0.453300	0.302800	0.806160
H211	H21	0.481000	0.348500	0.783900
C431	C43	0.418500	0.219800	0.783440
C441	C44	0.377800	0.151600	0.816700
H221	H22	0.354700	0.095500	0.801800
C451	C45	0.371300	0.167300	0.872500
H231	H23	0.344500	0.121100	0.894800
C461	C46	0.404500	0.251100	0.895100
H241	H24	0.398300	0.262100	0.932200
C471	C47	0.482700	0.409400	0.886330
C481	C48	0.425200	0.206000	0.722760
Co41	Co4	0.930120	0.404060	0.373280
O251	O25	0.803900	0.342700	0.407510
O261	O26	0.881100	0.446200	0.455450
O271	O27	0.586000	0.117900	0.517050
O281	O28	0.538400	0.168500	0.598780
O291	O29	0.967500	0.536900	0.356200
O301	O30	0.041100	0.574500	0.434010
O311	O31	0.058900	0.724500	0.193430
O321	O32	0.085400	0.877900	0.205640
C491	C49	0.750700	0.367500	0.499500
C501	C50	0.696900	0.284700	0.503140
H251	H25	0.696800	0.241800	0.474400
C511	C51	0.643400	0.265600	0.549550
C521	C52	0.642900	0.331200	0.592040
H261	H26	0.607500	0.318800	0.623400
C531	C53	0.694600	0.414000	0.587800
H271	H27	0.692600	0.457900	0.616000
C541	C54	0.749400	0.432700	0.542080
H281	H28	0.785100	0.488300	0.539800
C551	C55	0.815100	0.385400	0.451940
C561	C56	0.584700	0.175800	0.554940
C571	C57	0.052900	0.681400	0.361880
C581	C58	0.046700	0.697200	0.306160
H291	H29	0.019000	0.651500	0.283900
C591	C59	0.081500	0.780200	0.283440
C601	C60	0.122200	0.848400	0.316700
H301	H30	0.145300	0.904500	0.301800
C611	C61	0.128700	0.832700	0.372500
H311	H31	0.155500	0.878900	0.394800
C621	C62	0.095500	0.748900	0.395100
H321	H32	0.101700	0.737900	0.432200
C631	C63	0.017300	0.590600	0.386330
C641	C64	0.074800	0.794000	0.222760
Co51	Co5	0.569880	0.904060	0.373280
O331	O33	0.696100	0.842700	0.407510
O341	O34	0.618900	0.946200	0.455450
O351	O35	0.914000	0.617900	0.517050
O361	O36	0.961600	0.668500	0.598780
O371	O37	0.532500	0.036900	0.356200
O381	O38	0.458900	0.074500	0.434010
O391	O39	0.441100	0.224500	0.193430
O401	O40	0.414600	0.377900	0.205640
C651	C65	0.749300	0.867500	0.499500
C661	C66	0.803100	0.784700	0.503140
H331	H33	0.803200	0.741800	0.474400
C671	C67	0.856600	0.765600	0.549550
C681	C68	0.857100	0.831200	0.592040
H341	H34	0.892500	0.818800	0.623400
C691	C69	0.805400	0.914000	0.587800
H351	H35	0.807400	0.957900	0.616000
C701	C70	0.750600	0.932700	0.542080
H361	H36	0.714900	0.988300	0.539800
C711	C71	0.684900	0.885400	0.451940
C721	C72	0.915300	0.675800	0.554940
C731	C73	0.447100	0.181400	0.361880
C741	C74	0.453300	0.197200	0.306160
H371	H37	0.481000	0.151500	0.283900
C751	C75	0.418500	0.280200	0.283440
C761	C76	0.377800	0.348400	0.316700
H381	H38	0.354700	0.404500	0.301800
C771	C77	0.371300	0.332700	0.372500
H391	H39	0.344500	0.378900	0.394800
C781	C78	0.404500	0.248900	0.395100
H401	H40	0.398300	0.237900	0.432200
C791	C79	0.482700	0.090600	0.386330
C801	C80	0.425200	0.294000	0.222760
Co61	Co6	0.930120	0.095940	0.873280
O411	O41	0.803900	0.157300	0.907510
O421	O42	0.881100	0.053800	0.955450
O431	O43	0.586000	0.382100	0.017050
O441	O44	0.538400	0.331500	0.098780
O451	O45	0.967500	0.963100	0.856200
O461	O46	0.041100	0.925500	0.934010
O471	O47	0.058900	0.775500	0.693430
O481	O48	0.085400	0.622100	0.705640
C811	C81	0.750700	0.132500	0.999500
C821	C82	0.696900	0.215300	0.003140
H411	H41	0.696800	0.258200	0.974400
C831	C83	0.643400	0.234400	0.049550
C841	C84	0.642900	0.168800	0.092040
H421	H42	0.607500	0.181200	0.123400
C851	C85	0.694600	0.086000	0.087800
H431	H43	0.692600	0.042100	0.116000
C861	C86	0.749400	0.067300	0.042080
H441	H44	0.785100	0.011700	0.039800
C871	C87	0.815100	0.114600	0.951940
C881	C88	0.584700	0.324200	0.054940
C891	C89	0.052900	0.818600	0.861880
C901	C90	0.046700	0.802800	0.806160
H451	H45	0.019000	0.848500	0.783900
C911	C91	0.081500	0.719800	0.783440
C921	C92	0.122200	0.651600	0.816700
H461	H46	0.145300	0.595500	0.801800
C931	C93	0.128700	0.667300	0.872500
H471	H47	0.155500	0.621100	0.894800
C941	C94	0.095500	0.751100	0.895100
H481	H48	0.101700	0.762100	0.932200
C951	C95	0.017300	0.909400	0.886330
C961	C96	0.074800	0.706000	0.722760
Co71	Co7	0.430120	0.404060	0.126720
O491	O49	0.303900	0.342700	0.092490
O501	O50	0.381100	0.446200	0.044550
O511	O51	0.086000	0.117900	0.982950
O521	O52	0.038400	0.168500	0.901220
O531	O53	0.467500	0.536900	0.143800
O541	O54	0.541100	0.574500	0.065990
O551	O55	0.558900	0.724500	0.306570
O561	O56	0.585400	0.877900	0.294360
C971	C97	0.250700	0.367500	0.000500
C981	C98	0.196900	0.284700	0.996860
H491	H49	0.196800	0.241800	0.025600
C991	C99	0.143400	0.265600	0.950450
C1001	C100	0.142900	0.331200	0.907960
H501	H50	0.107500	0.318800	0.876600
C1011	C101	0.194600	0.414000	0.912200
H511	H51	0.192600	0.457900	0.884000
C1021	C102	0.249400	0.432700	0.957920
H521	H52	0.285100	0.488300	0.960200
C1031	C103	0.315100	0.385400	0.048060
C1041	C104	0.084700	0.175800	0.945060
C1051	C105	0.552900	0.681400	0.138120
C1061	C106	0.546700	0.697200	0.193840
H531	H53	0.519000	0.651500	0.216100
C1071	C107	0.581500	0.780200	0.216560
C1081	C108	0.622200	0.848400	0.183300
H541	H54	0.645300	0.904500	0.198200
C1091	C109	0.628700	0.832700	0.127500
H551	H55	0.655500	0.878900	0.105200
C1101	C110	0.595500	0.748900	0.104900
H561	H56	0.601700	0.737900	0.067800
C1111	C111	0.517300	0.590600	0.113670
C1121	C112	0.574800	0.794000	0.277240
Co81	Co8	0.069880	0.595940	0.626720
O571	O57	0.196100	0.657300	0.592490
O581	O58	0.118900	0.553800	0.544550
O591	O59	0.414000	0.882100	0.482950
O601	O60	0.461600	0.831500	0.401220
O611	O61	0.032500	0.463100	0.643800
O621	O62	0.958900	0.425500	0.565990
O631	O63	0.941100	0.275500	0.806570
O641	O64	0.914600	0.122100	0.794360
C1131	C113	0.249300	0.632500	0.500500
C1141	C114	0.303100	0.715300	0.496860
H571	H57	0.303200	0.758200	0.525600
C1151	C115	0.356600	0.734400	0.450450
C1161	C116	0.357100	0.668800	0.407960
H581	H58	0.392500	0.681200	0.376600
C1171	C117	0.305400	0.586000	0.412200
H591	H59	0.307400	0.542100	0.384000
C1181	C118	0.250600	0.567300	0.457920
H601	H60	0.214900	0.511700	0.460200
C1191	C119	0.184900	0.614600	0.548060
C1201	C120	0.415300	0.824200	0.445060
C1211	C121	0.947100	0.318600	0.638120
C1221	C122	0.953300	0.302800	0.693840
H611	H61	0.981000	0.348500	0.716100
C1231	C123	0.918500	0.219800	0.716560
C1241	C124	0.877800	0.151600	0.683300
H621	H62	0.854700	0.095500	0.698200
C1251	C125	0.871300	0.167300	0.627500
H631	H63	0.844500	0.121100	0.605200
C1261	C126	0.904500	0.251100	0.604900
H641	H64	0.898300	0.262100	0.567800
C1271	C127	0.982700	0.409400	0.613670
C1281	C128	0.925200	0.206000	0.777240
Co91	Co9	0.500000	0.000000	0.500000
Co101	Co10	0.000000	0.000000	0.000000
Co111	Co11	0.500000	0.500000	0.000000
Co121	Co12	0.000000	0.500000	0.500000
