data_WIMWIA_clean_PM
_symmetry_space_group_name_H-M	'P1'
_cell_length_a	14.085000
_cell_length_b	14.019000
_cell_length_c	24.130000
_cell_angle_alpha	90.000000
_cell_angle_beta	90.000000
_cell_angle_gamma	90.000000
_symmetry_Int_Tables_number 1

loop_
_symmetry_equiv_pos_as_xyz
'x,y,z'

loop_
_atom_site_label
_atom_site_type_symbol
_atom_site_fract_x
_atom_site_fract_y
_atom_site_fract_z
Zn11	Zn1	0.439610	0.090670	0.373450
O11	O1	0.549100	0.164000	0.394100
O21	O2	0.591000	0.113300	0.477800
O31	O3	0.807000	0.325200	0.591700
O41	O4	0.878900	0.441600	0.550400
O51	O5	0.479800	0.958300	0.355700
O61	O6	0.536000	0.914000	0.438300
O71	O7	0.593300	0.613300	0.203700
O81	O8	0.563300	0.768300	0.193100
C11	C1	0.650600	0.259400	0.446000
C21	C2	0.702200	0.278600	0.493700
H11	H1	0.700300	0.235200	0.522900
C31	C3	0.756600	0.361100	0.499200
C41	C4	0.755900	0.426400	0.457200
H21	H2	0.789300	0.483200	0.461000
C51	C5	0.706100	0.408600	0.409100
H31	H3	0.707300	0.453000	0.380400
C61	C6	0.654700	0.326300	0.403200
H41	H4	0.622200	0.314800	0.370300
C71	C7	0.592000	0.171600	0.439000
C81	C8	0.817200	0.376200	0.550800
C91	C9	0.555400	0.809100	0.363800
C101	C10	0.552200	0.793800	0.306900
H51	H5	0.527400	0.841100	0.284000
C111	C11	0.584800	0.710300	0.283600
C121	C12	0.620900	0.641500	0.317700
H61	H6	0.642100	0.584200	0.302800
C131	C13	0.626200	0.656400	0.374000
H71	H7	0.653800	0.610400	0.396600
C141	C14	0.590800	0.739200	0.397100
H81	H8	0.591100	0.747200	0.435400
C151	C15	0.520800	0.900800	0.388000
C161	C16	0.580400	0.697900	0.222500
Zn21	Zn2	0.060390	0.909330	0.873450
O91	O9	0.950900	0.836000	0.894100
O101	O10	0.909000	0.886700	0.977800
O111	O11	0.693000	0.674800	0.091700
O121	O12	0.621100	0.558400	0.050400
O131	O13	0.020200	0.041700	0.855700
O141	O14	0.964000	0.086000	0.938300
O151	O15	0.906700	0.386700	0.703700
O161	O16	0.936700	0.231700	0.693100
C171	C17	0.849400	0.740600	0.946000
C181	C18	0.797800	0.721400	0.993700
H91	H9	0.799700	0.764800	0.022900
C191	C19	0.743400	0.638900	0.999200
C201	C20	0.744100	0.573600	0.957200
H101	H10	0.710700	0.516800	0.961000
C211	C21	0.793900	0.591400	0.909100
H111	H11	0.792700	0.547000	0.880400
C221	C22	0.845300	0.673700	0.903200
H121	H12	0.877800	0.685200	0.870300
C231	C23	0.908000	0.828400	0.939000
C241	C24	0.682800	0.623800	0.050800
C251	C25	0.944600	0.190900	0.863800
C261	C26	0.947800	0.206200	0.806900
H131	H13	0.972600	0.158900	0.784000
C271	C27	0.915200	0.289700	0.783600
C281	C28	0.879100	0.358500	0.817700
H141	H14	0.857900	0.415800	0.802800
C291	C29	0.873800	0.343600	0.874000
H151	H15	0.846200	0.389600	0.896600
C301	C30	0.909200	0.260800	0.897100
H161	H16	0.908900	0.252800	0.935400
C311	C31	0.979200	0.099200	0.888000
C321	C32	0.919600	0.302100	0.722500
Zn31	Zn3	0.560390	0.590670	0.126550
O171	O17	0.450900	0.664000	0.105900
O181	O18	0.409000	0.613300	0.022200
O191	O19	0.193000	0.825200	0.908300
O201	O20	0.121100	0.941600	0.949600
O211	O21	0.520200	0.458300	0.144300
O221	O22	0.464000	0.414000	0.061700
O231	O23	0.406700	0.113300	0.296300
O241	O24	0.436700	0.268300	0.306900
C331	C33	0.349400	0.759400	0.054000
C341	C34	0.297800	0.778600	0.006300
H171	H17	0.299700	0.735200	0.977100
C351	C35	0.243400	0.861100	0.000800
C361	C36	0.244100	0.926400	0.042800
H181	H18	0.210700	0.983200	0.039000
C371	C37	0.293900	0.908600	0.090900
H191	H19	0.292700	0.953000	0.119600
C381	C38	0.345300	0.826300	0.096800
H201	H20	0.377800	0.814800	0.129700
C391	C39	0.408000	0.671600	0.061000
C401	C40	0.182800	0.876200	0.949200
C411	C41	0.444600	0.309100	0.136200
C421	C42	0.447800	0.293800	0.193100
H211	H21	0.472600	0.341100	0.216000
C431	C43	0.415200	0.210300	0.216400
C441	C44	0.379100	0.141500	0.182300
H221	H22	0.357900	0.084200	0.197200
C451	C45	0.373800	0.156400	0.126000
H231	H23	0.346200	0.110400	0.103400
C461	C46	0.409200	0.239200	0.102900
H241	H24	0.408900	0.247200	0.064600
C471	C47	0.479200	0.400800	0.112000
C481	C48	0.419600	0.197900	0.277500
Zn41	Zn4	0.939610	0.409330	0.626550
O251	O25	0.049100	0.336000	0.605900
O261	O26	0.091000	0.386700	0.522200
O271	O27	0.307000	0.174800	0.408300
O281	O28	0.378900	0.058400	0.449600
O291	O29	0.979800	0.541700	0.644300
O301	O30	0.036000	0.586000	0.561700
O311	O31	0.093300	0.886700	0.796300
O321	O32	0.063300	0.731700	0.806900
C491	C49	0.150600	0.240600	0.554000
C501	C50	0.202200	0.221400	0.506300
H251	H25	0.200300	0.264800	0.477100
C511	C51	0.256600	0.138900	0.500800
C521	C52	0.255900	0.073600	0.542800
H261	H26	0.289300	0.016800	0.539000
C531	C53	0.206100	0.091400	0.590900
H271	H27	0.207300	0.047000	0.619600
C541	C54	0.154700	0.173700	0.596800
H281	H28	0.122200	0.185200	0.629700
C551	C55	0.092000	0.328400	0.561000
C561	C56	0.317200	0.123800	0.449200
C571	C57	0.055400	0.690900	0.636200
C581	C58	0.052200	0.706200	0.693100
H291	H29	0.027400	0.658900	0.716000
C591	C59	0.084800	0.789700	0.716400
C601	C60	0.120900	0.858500	0.682300
H301	H30	0.142100	0.915800	0.697200
C611	C61	0.126200	0.843600	0.626000
H311	H31	0.153800	0.889600	0.603400
C621	C62	0.090800	0.760800	0.602900
H321	H32	0.091100	0.752800	0.564600
C631	C63	0.020800	0.599200	0.612000
C641	C64	0.080400	0.802100	0.777500
Zn51	Zn5	0.560390	0.909330	0.626550
O331	O33	0.450900	0.836000	0.605900
O341	O34	0.409000	0.886700	0.522200
O351	O35	0.193000	0.674800	0.408300
O361	O36	0.121100	0.558400	0.449600
O371	O37	0.520200	0.041700	0.644300
O381	O38	0.464000	0.086000	0.561700
O391	O39	0.406700	0.386700	0.796300
O401	O40	0.436700	0.231700	0.806900
C651	C65	0.349400	0.740600	0.554000
C661	C66	0.297800	0.721400	0.506300
H331	H33	0.299700	0.764800	0.477100
C671	C67	0.243400	0.638900	0.500800
C681	C68	0.244100	0.573600	0.542800
H341	H34	0.210700	0.516800	0.539000
C691	C69	0.293900	0.591400	0.590900
H351	H35	0.292700	0.547000	0.619600
C701	C70	0.345300	0.673700	0.596800
H361	H36	0.377800	0.685200	0.629700
C711	C71	0.408000	0.828400	0.561000
C721	C72	0.182800	0.623800	0.449200
C731	C73	0.444600	0.190900	0.636200
C741	C74	0.447800	0.206200	0.693100
H371	H37	0.472600	0.158900	0.716000
C751	C75	0.415200	0.289700	0.716400
C761	C76	0.379100	0.358500	0.682300
H381	H38	0.357900	0.415800	0.697200
C771	C77	0.373800	0.343600	0.626000
H391	H39	0.346200	0.389600	0.603400
C781	C78	0.409200	0.260800	0.602900
H401	H40	0.408900	0.252800	0.564600
C791	C79	0.479200	0.099200	0.612000
C801	C80	0.419600	0.302100	0.777500
Zn61	Zn6	0.939610	0.090670	0.126550
O411	O41	0.049100	0.164000	0.105900
O421	O42	0.091000	0.113300	0.022200
O431	O43	0.307000	0.325200	0.908300
O441	O44	0.378900	0.441600	0.949600
O451	O45	0.979800	0.958300	0.144300
O461	O46	0.036000	0.914000	0.061700
O471	O47	0.093300	0.613300	0.296300
O481	O48	0.063300	0.768300	0.306900
C811	C81	0.150600	0.259400	0.054000
C821	C82	0.202200	0.278600	0.006300
H411	H41	0.200300	0.235200	0.977100
C831	C83	0.256600	0.361100	0.000800
C841	C84	0.255900	0.426400	0.042800
H421	H42	0.289300	0.483200	0.039000
C851	C85	0.206100	0.408600	0.090900
H431	H43	0.207300	0.453000	0.119600
C861	C86	0.154700	0.326300	0.096800
H441	H44	0.122200	0.314800	0.129700
C871	C87	0.092000	0.171600	0.061000
C881	C88	0.317200	0.376200	0.949200
C891	C89	0.055400	0.809100	0.136200
C901	C90	0.052200	0.793800	0.193100
H451	H45	0.027400	0.841100	0.216000
C911	C91	0.084800	0.710300	0.216400
C921	C92	0.120900	0.641500	0.182300
H461	H46	0.142100	0.584200	0.197200
C931	C93	0.126200	0.656400	0.126000
H471	H47	0.153800	0.610400	0.103400
C941	C94	0.090800	0.739200	0.102900
H481	H48	0.091100	0.747200	0.064600
C951	C95	0.020800	0.900800	0.112000
C961	C96	0.080400	0.697900	0.277500
Zn71	Zn7	0.439610	0.409330	0.873450
O491	O49	0.549100	0.336000	0.894100
O501	O50	0.591000	0.386700	0.977800
O511	O51	0.807000	0.174800	0.091700
O521	O52	0.878900	0.058400	0.050400
O531	O53	0.479800	0.541700	0.855700
O541	O54	0.536000	0.586000	0.938300
O551	O55	0.593300	0.886700	0.703700
O561	O56	0.563300	0.731700	0.693100
C971	C97	0.650600	0.240600	0.946000
C981	C98	0.702200	0.221400	0.993700
H491	H49	0.700300	0.264800	0.022900
C991	C99	0.756600	0.138900	0.999200
C1001	C100	0.755900	0.073600	0.957200
H501	H50	0.789300	0.016800	0.961000
C1011	C101	0.706100	0.091400	0.909100
H511	H51	0.707300	0.047000	0.880400
C1021	C102	0.654700	0.173700	0.903200
H521	H52	0.622200	0.185200	0.870300
C1031	C103	0.592000	0.328400	0.939000
C1041	C104	0.817200	0.123800	0.050800
C1051	C105	0.555400	0.690900	0.863800
C1061	C106	0.552200	0.706200	0.806900
H531	H53	0.527400	0.658900	0.784000
C1071	C107	0.584800	0.789700	0.783600
C1081	C108	0.620900	0.858500	0.817700
H541	H54	0.642100	0.915800	0.802800
C1091	C109	0.626200	0.843600	0.874000
H551	H55	0.653800	0.889600	0.896600
C1101	C110	0.590800	0.760800	0.897100
H561	H56	0.591100	0.752800	0.935400
C1111	C111	0.520800	0.599200	0.888000
C1121	C112	0.580400	0.802100	0.722500
Zn81	Zn8	0.060390	0.590670	0.373450
O571	O57	0.950900	0.664000	0.394100
O581	O58	0.909000	0.613300	0.477800
O591	O59	0.693000	0.825200	0.591700
O601	O60	0.621100	0.941600	0.550400
O611	O61	0.020200	0.458300	0.355700
O621	O62	0.964000	0.414000	0.438300
O631	O63	0.906700	0.113300	0.203700
O641	O64	0.936700	0.268300	0.193100
C1131	C113	0.849400	0.759400	0.446000
C1141	C114	0.797800	0.778600	0.493700
H571	H57	0.799700	0.735200	0.522900
C1151	C115	0.743400	0.861100	0.499200
C1161	C116	0.744100	0.926400	0.457200
H581	H58	0.710700	0.983200	0.461000
C1171	C117	0.793900	0.908600	0.409100
H591	H59	0.792700	0.953000	0.380400
C1181	C118	0.845300	0.826300	0.403200
H601	H60	0.877800	0.814800	0.370300
C1191	C119	0.908000	0.671600	0.439000
C1201	C120	0.682800	0.876200	0.550800
C1211	C121	0.944600	0.309100	0.363800
C1221	C122	0.947800	0.293800	0.306900
H611	H61	0.972600	0.341100	0.284000
C1231	C123	0.915200	0.210300	0.283600
C1241	C124	0.879100	0.141500	0.317700
H621	H62	0.857900	0.084200	0.302800
C1251	C125	0.873800	0.156400	0.374000
H631	H63	0.846200	0.110400	0.396600
C1261	C126	0.909200	0.239200	0.397100
H641	H64	0.908900	0.247200	0.435400
C1271	C127	0.979200	0.400800	0.388000
C1281	C128	0.919600	0.197900	0.222500
Zn91	Zn9	0.500000	0.000000	0.500000
Zn101	Zn10	0.000000	0.000000	0.000000
Zn111	Zn11	0.500000	0.500000	0.000000
Zn121	Zn12	0.000000	0.500000	0.500000
