data_WINCEC_clean_PM
_symmetry_space_group_name_H-M	'P1'
_cell_length_a	16.401100
_cell_length_b	7.178600
_cell_length_c	14.258600
_cell_angle_alpha	90.000000
_cell_angle_beta	90.000000
_cell_angle_gamma	90.000000
_symmetry_Int_Tables_number 1

loop_
_symmetry_equiv_pos_as_xyz
'x,y,z'

loop_
_atom_site_label
_atom_site_type_symbol
_atom_site_fract_x
_atom_site_fract_y
_atom_site_fract_z
O11	O1	0.591870	0.561110	0.733360
O21	O2	0.540190	0.809890	0.658300
O31	O3	0.560260	0.638160	0.463440
O41	O4	0.584100	0.941040	0.433630
C11	C1	0.675890	0.719080	0.624520
C21	C2	0.676260	0.775580	0.530740
C31	C3	0.595800	0.694710	0.676060
C41	C4	0.599800	0.786390	0.472280
O51	O5	0.091870	0.061110	0.233360
O61	O6	0.040190	0.309890	0.158300
O71	O7	0.060260	0.138160	0.963440
O81	O8	0.084100	0.441040	0.933630
C51	C5	0.175890	0.219080	0.124520
C61	C6	0.176260	0.275580	0.030740
C71	C7	0.095800	0.194710	0.176060
C81	C8	0.099800	0.286390	0.972280
O91	O9	0.408130	0.438890	0.733360
O101	O10	0.459810	0.190110	0.658300
O111	O11	0.439740	0.361840	0.463440
O121	O12	0.415900	0.058960	0.433630
C91	C9	0.324110	0.280920	0.624520
C101	C10	0.323740	0.224420	0.530740
C111	C11	0.404200	0.305290	0.676060
C121	C12	0.400200	0.213610	0.472280
O131	O13	0.908130	0.938890	0.233360
O141	O14	0.959810	0.690110	0.158300
O151	O15	0.939740	0.861840	0.963440
O161	O16	0.915900	0.558960	0.933630
C131	C13	0.824110	0.780920	0.124520
C141	C14	0.823740	0.724420	0.030740
C151	C15	0.904200	0.805290	0.176060
C161	C16	0.900200	0.713610	0.972280
O171	O17	0.091870	0.438890	0.733360
O181	O18	0.040190	0.190110	0.658300
O191	O19	0.060260	0.361840	0.463440
O201	O20	0.084100	0.058960	0.433630
C171	C17	0.175890	0.280920	0.624520
C181	C18	0.176260	0.224420	0.530740
C191	C19	0.095800	0.305290	0.676060
C201	C20	0.099800	0.213610	0.472280
O211	O21	0.591870	0.938890	0.233360
O221	O22	0.540190	0.690110	0.158300
O231	O23	0.560260	0.861840	0.963440
O241	O24	0.584100	0.558960	0.933630
C211	C21	0.675890	0.780920	0.124520
C221	C22	0.676260	0.724420	0.030740
C231	C23	0.595800	0.805290	0.176060
C241	C24	0.599800	0.713610	0.972280
O251	O25	0.908130	0.561110	0.733360
O261	O26	0.959810	0.809890	0.658300
O271	O27	0.939740	0.638160	0.463440
O281	O28	0.915900	0.941040	0.433630
C251	C25	0.824110	0.719080	0.624520
C261	C26	0.823740	0.775580	0.530740
C271	C27	0.904200	0.694710	0.676060
C281	C28	0.900200	0.786390	0.472280
O291	O29	0.408130	0.061110	0.233360
O301	O30	0.459810	0.309890	0.158300
O311	O31	0.439740	0.138160	0.963440
O321	O32	0.415900	0.441040	0.933630
C291	C29	0.324110	0.219080	0.124520
C301	C30	0.323740	0.275580	0.030740
C311	C31	0.404200	0.194710	0.176060
C321	C32	0.400200	0.286390	0.972280
Co11	Co1	0.500000	0.500000	0.827490
Co21	Co2	0.000000	0.000000	0.327490
Co31	Co3	0.000000	0.500000	0.827490
Co41	Co4	0.500000	0.000000	0.327490
C331	C33	0.750000	0.690800	0.670610
H11	H1	0.750000	0.651700	0.734300
C341	C34	0.750000	0.805600	0.484350
H21	H2	0.750000	0.846500	0.421000
C351	C35	0.250000	0.190800	0.170610
H31	H3	0.250000	0.151700	0.234300
C361	C36	0.250000	0.305600	0.984350
H41	H4	0.250000	0.346500	0.921000
C371	C37	0.250000	0.309200	0.670610
H51	H5	0.250000	0.348300	0.734300
C381	C38	0.250000	0.194400	0.484350
H61	H6	0.250000	0.153500	0.421000
C391	C39	0.750000	0.809200	0.170610
H71	H7	0.750000	0.848300	0.234300
C401	C40	0.750000	0.694400	0.984350
H81	H8	0.750000	0.653500	0.921000
