data_WITJUG_clean_PM
_symmetry_space_group_name_H-M	'P1'
_cell_length_a	18.035200
_cell_length_b	25.867600
_cell_length_c	18.058400
_cell_angle_alpha	90.000000
_cell_angle_beta	118.861000
_cell_angle_gamma	90.000000
_symmetry_Int_Tables_number 1

loop_
_symmetry_equiv_pos_as_xyz
'x,y,z'

loop_
_atom_site_label
_atom_site_type_symbol
_atom_site_fract_x
_atom_site_fract_y
_atom_site_fract_z
Mn11	Mn1	0.926900	0.083140	0.801580
Mn21	Mn2	0.893370	0.000040	0.106820
Mn31	Mn3	0.801740	0.083200	0.927080
S11	S1	0.534210	0.903860	0.534070
S21	S2	0.439710	0.823770	0.771800
S31	S3	0.772400	0.823860	0.440010
O11	O1	0.915790	0.047860	0.021270
O21	O2	0.020730	0.048110	0.915080
O31	O3	0.890500	0.967580	0.890100
O41	O4	0.629300	0.653110	0.559200
O51	O5	0.230300	0.886290	0.981300
O61	O6	0.720400	0.017030	0.904600
O71	O7	0.837300	0.046240	0.837100
O81	O8	0.559100	0.653220	0.629000
O91	O9	0.981900	0.885610	0.231100
O101	O10	0.905000	0.016950	0.721100
O111	O11	0.192000	0.948200	0.887700
O121	O12	0.887200	0.948300	0.191800
O131	O13	0.793100	0.958120	0.004200
O141	O14	0.003500	0.958190	0.792500
O151	O15	0.540400	0.919090	0.460600
O161	O16	0.461000	0.919180	0.540000
O171	O17	0.396100	0.831300	0.681200
O181	O18	0.470200	0.773210	0.805000
O191	O19	0.684200	0.829700	0.397700
O201	O20	0.805100	0.772630	0.469800
C11	C1	0.835700	0.996220	0.835500
C21	C2	0.761100	0.973050	0.761300
C31	C3	0.699900	0.002700	0.699900
H11	H1	0.705300	0.038500	0.705100
C41	C4	0.630400	0.982490	0.630500
H21	H2	0.589600	0.003800	0.589700
C51	C5	0.623800	0.928610	0.623900
C61	C6	0.685600	0.897730	0.685200
H31	H3	0.681300	0.861900	0.680400
C71	C7	0.752300	0.919750	0.752100
H41	H4	0.793300	0.898600	0.793000
C81	C8	0.545200	0.836930	0.545200
C91	C9	0.513700	0.810480	0.590400
H51	H5	0.484300	0.828200	0.612900
C101	C10	0.525700	0.758390	0.602400
H61	H6	0.502600	0.740800	0.631300
C111	C11	0.571900	0.731370	0.572000
C121	C12	0.603000	0.758180	0.526200
H71	H7	0.632700	0.740500	0.503900
C131	C13	0.590300	0.810790	0.513300
H81	H8	0.612200	0.828500	0.483300
C141	C14	0.587800	0.674950	0.587500
C151	C15	0.731700	0.973600	0.938900
C161	C16	0.657600	0.937000	0.895700
C171	C17	0.592400	0.945600	0.814100
H91	H9	0.592900	0.975600	0.786000
C181	C18	0.525700	0.910300	0.773000
H101	H10	0.483400	0.916700	0.717900
C191	C19	0.523000	0.867000	0.813900
C201	C20	0.586500	0.857000	0.894400
H111	H11	0.583700	0.827000	0.921300
C211	C21	0.657600	0.891500	0.938800
H121	H12	0.701000	0.884100	0.992900
C221	C22	0.375800	0.845700	0.813700
C231	C23	0.321000	0.884600	0.774100
H131	H13	0.315000	0.897400	0.723300
C241	C24	0.273600	0.905700	0.808300
H141	H14	0.238600	0.934000	0.783000
C251	C25	0.279400	0.883700	0.881300
C261	C26	0.330900	0.843800	0.918400
H151	H15	0.333800	0.829000	0.966700
C271	C27	0.381000	0.824000	0.884600
H161	H16	0.417300	0.796300	0.910500
C281	C28	0.229600	0.907900	0.920200
C291	C29	0.919600	0.907800	0.228800
C301	C30	0.881900	0.883500	0.279700
C311	C31	0.810400	0.904500	0.273500
H171	H17	0.785700	0.932800	0.238200
C321	C32	0.773300	0.884100	0.319900
H181	H18	0.722100	0.897100	0.312600
C331	C33	0.812700	0.845700	0.374700
C341	C34	0.884500	0.824200	0.382300
H191	H19	0.911100	0.797400	0.420400
C351	C35	0.919300	0.843400	0.330800
H201	H20	0.967000	0.828100	0.333100
C361	C36	0.814100	0.867300	0.523000
C371	C37	0.774100	0.910300	0.526500
H211	H21	0.719000	0.916900	0.484500
C381	C38	0.816000	0.945100	0.594100
H221	H22	0.787900	0.975100	0.595100
C391	C39	0.896500	0.936700	0.658700
C401	C40	0.940100	0.892000	0.657800
H231	H23	0.994700	0.884900	0.700600
C411	C41	0.895000	0.857300	0.586000
H241	H24	0.921800	0.827300	0.582900
C421	C42	0.940100	0.974300	0.732100
Mn41	Mn4	0.573100	0.583140	0.698420
Mn51	Mn5	0.606630	0.500040	0.393180
Mn61	Mn6	0.698260	0.583200	0.572920
S41	S4	0.965790	0.403860	0.965930
S51	S5	0.060290	0.323770	0.728200
S61	S6	0.727600	0.323860	0.059990
O211	O21	0.584210	0.547860	0.478730
O221	O22	0.479270	0.548110	0.584920
O231	O23	0.609500	0.467580	0.609900
O241	O24	0.870700	0.153110	0.940800
O251	O25	0.269700	0.386290	0.518700
O261	O26	0.779600	0.517030	0.595400
O271	O27	0.662700	0.546240	0.662900
O281	O28	0.940900	0.153220	0.871000
O291	O29	0.518100	0.385610	0.268900
O301	O30	0.595000	0.516950	0.778900
O311	O31	0.308000	0.448200	0.612300
O321	O32	0.612800	0.448300	0.308200
O331	O33	0.706900	0.458120	0.495800
O341	O34	0.496500	0.458190	0.707500
O351	O35	0.959600	0.419090	0.039400
O361	O36	0.039000	0.419180	0.960000
O371	O37	0.103900	0.331300	0.818800
O381	O38	0.029800	0.273210	0.695000
O391	O39	0.815800	0.329700	0.102300
O401	O40	0.694900	0.272630	0.030200
C431	C43	0.664300	0.496220	0.664500
C441	C44	0.738900	0.473050	0.738700
C451	C45	0.800100	0.502700	0.800100
H251	H25	0.794700	0.538500	0.794900
C461	C46	0.869600	0.482490	0.869500
H261	H26	0.910400	0.503800	0.910300
C471	C47	0.876200	0.428610	0.876100
C481	C48	0.814400	0.397730	0.814800
H271	H27	0.818700	0.361900	0.819600
C491	C49	0.747700	0.419750	0.747900
H281	H28	0.706700	0.398600	0.707000
C501	C50	0.954800	0.336930	0.954800
C511	C51	0.986300	0.310480	0.909600
H291	H29	0.015700	0.328200	0.887100
C521	C52	0.974300	0.258390	0.897600
H301	H30	0.997400	0.240800	0.868700
C531	C53	0.928100	0.231370	0.928000
C541	C54	0.897000	0.258180	0.973800
H311	H31	0.867300	0.240500	0.996100
C551	C55	0.909700	0.310790	0.986700
H321	H32	0.887800	0.328500	0.016700
C561	C56	0.912200	0.174950	0.912500
C571	C57	0.768300	0.473600	0.561100
C581	C58	0.842400	0.437000	0.604300
C591	C59	0.907600	0.445600	0.685900
H331	H33	0.907100	0.475600	0.714000
C601	C60	0.974300	0.410300	0.727000
H341	H34	0.016600	0.416700	0.782100
C611	C61	0.977000	0.367000	0.686100
C621	C62	0.913500	0.357000	0.605600
H351	H35	0.916300	0.327000	0.578700
C631	C63	0.842400	0.391500	0.561200
H361	H36	0.799000	0.384100	0.507100
C641	C64	0.124200	0.345700	0.686300
C651	C65	0.179000	0.384600	0.725900
H371	H37	0.185000	0.397400	0.776700
C661	C66	0.226400	0.405700	0.691700
H381	H38	0.261400	0.434000	0.717000
C671	C67	0.220600	0.383700	0.618700
C681	C68	0.169100	0.343800	0.581600
H391	H39	0.166200	0.329000	0.533300
C691	C69	0.119000	0.324000	0.615400
H401	H40	0.082700	0.296300	0.589500
C701	C70	0.270400	0.407900	0.579800
C711	C71	0.580400	0.407800	0.271200
C721	C72	0.618100	0.383500	0.220300
C731	C73	0.689600	0.404500	0.226500
H411	H41	0.714300	0.432800	0.261800
C741	C74	0.726700	0.384100	0.180100
H421	H42	0.777900	0.397100	0.187400
C751	C75	0.687300	0.345700	0.125300
C761	C76	0.615500	0.324200	0.117700
H431	H43	0.588900	0.297400	0.079600
C771	C77	0.580700	0.343400	0.169200
H441	H44	0.533000	0.328100	0.166900
C781	C78	0.685900	0.367300	0.977000
C791	C79	0.725900	0.410300	0.973500
H451	H45	0.781000	0.416900	0.015500
C801	C80	0.684000	0.445100	0.905900
H461	H46	0.712100	0.475100	0.904900
C811	C81	0.603500	0.436700	0.841300
C821	C82	0.559900	0.392000	0.842200
H471	H47	0.505300	0.384900	0.799400
C831	C83	0.605000	0.357300	0.914000
H481	H48	0.578200	0.327300	0.917100
C841	C84	0.559900	0.474300	0.767900
Mn71	Mn7	0.073100	0.916860	0.198420
Mn81	Mn8	0.106630	0.999960	0.893180
Mn91	Mn9	0.198260	0.916800	0.072920
S71	S7	0.465790	0.096140	0.465930
S81	S8	0.560290	0.176230	0.228200
S91	S9	0.227600	0.176140	0.559990
O411	O41	0.084210	0.952140	0.978730
O421	O42	0.979270	0.951890	0.084920
O431	O43	0.109500	0.032420	0.109900
O441	O44	0.370700	0.346890	0.440800
O451	O45	0.769700	0.113710	0.018700
O461	O46	0.279600	0.982970	0.095400
O471	O47	0.162700	0.953760	0.162900
O481	O48	0.440900	0.346780	0.371000
O491	O49	0.018100	0.114390	0.768900
O501	O50	0.095000	0.983050	0.278900
O511	O51	0.808000	0.051800	0.112300
O521	O52	0.112800	0.051700	0.808200
O531	O53	0.206900	0.041880	0.995800
O541	O54	0.996500	0.041810	0.207500
O551	O55	0.459600	0.080910	0.539400
O561	O56	0.539000	0.080820	0.460000
O571	O57	0.603900	0.168700	0.318800
O581	O58	0.529800	0.226790	0.195000
O591	O59	0.315800	0.170300	0.602300
O601	O60	0.194900	0.227370	0.530200
C851	C85	0.164300	0.003780	0.164500
C861	C86	0.238900	0.026950	0.238700
C871	C87	0.300100	0.997300	0.300100
H491	H49	0.294700	0.961500	0.294900
C881	C88	0.369600	0.017510	0.369500
H501	H50	0.410400	0.996200	0.410300
C891	C89	0.376200	0.071390	0.376100
C901	C90	0.314400	0.102270	0.314800
H511	H51	0.318700	0.138100	0.319600
C911	C91	0.247700	0.080250	0.247900
H521	H52	0.206700	0.101400	0.207000
C921	C92	0.454800	0.163070	0.454800
C931	C93	0.486300	0.189520	0.409600
H531	H53	0.515700	0.171800	0.387100
C941	C94	0.474300	0.241610	0.397600
H541	H54	0.497400	0.259200	0.368700
C951	C95	0.428100	0.268630	0.428000
C961	C96	0.397000	0.241820	0.473800
H551	H55	0.367300	0.259500	0.496100
C971	C97	0.409700	0.189210	0.486700
H561	H56	0.387800	0.171500	0.516700
C981	C98	0.412200	0.325050	0.412500
C991	C99	0.268300	0.026400	0.061100
C1001	C100	0.342400	0.063000	0.104300
C1011	C101	0.407600	0.054400	0.185900
H571	H57	0.407100	0.024400	0.214000
C1021	C102	0.474300	0.089700	0.227000
H581	H58	0.516600	0.083300	0.282100
C1031	C103	0.477000	0.133000	0.186100
C1041	C104	0.413500	0.143000	0.105600
H591	H59	0.416300	0.173000	0.078700
C1051	C105	0.342400	0.108500	0.061200
H601	H60	0.299000	0.115900	0.007100
C1061	C106	0.624200	0.154300	0.186300
C1071	C107	0.679000	0.115400	0.225900
H611	H61	0.685000	0.102600	0.276700
C1081	C108	0.726400	0.094300	0.191700
H621	H62	0.761400	0.066000	0.217000
C1091	C109	0.720600	0.116300	0.118700
C1101	C110	0.669100	0.156200	0.081600
H631	H63	0.666200	0.171000	0.033300
C1111	C111	0.619000	0.176000	0.115400
H641	H64	0.582700	0.203700	0.089500
C1121	C112	0.770400	0.092100	0.079800
C1131	C113	0.080400	0.092200	0.771200
C1141	C114	0.118100	0.116500	0.720300
C1151	C115	0.189600	0.095500	0.726500
H651	H65	0.214300	0.067200	0.761800
C1161	C116	0.226700	0.115900	0.680100
H661	H66	0.277900	0.102900	0.687400
C1171	C117	0.187300	0.154300	0.625300
C1181	C118	0.115500	0.175800	0.617700
H671	H67	0.088900	0.202600	0.579600
C1191	C119	0.080700	0.156600	0.669200
H681	H68	0.033000	0.171900	0.666900
C1201	C120	0.185900	0.132700	0.477000
C1211	C121	0.225900	0.089700	0.473500
H691	H69	0.281000	0.083100	0.515500
C1221	C122	0.184000	0.054900	0.405900
H701	H70	0.212100	0.024900	0.404900
C1231	C123	0.103500	0.063300	0.341300
C1241	C124	0.059900	0.108000	0.342200
H711	H71	0.005300	0.115100	0.299400
C1251	C125	0.105000	0.142700	0.414000
H721	H72	0.078200	0.172700	0.417100
C1261	C126	0.059900	0.025700	0.267900
Mn101	Mn10	0.426900	0.416860	0.301580
Mn111	Mn11	0.393370	0.499960	0.606820
Mn121	Mn12	0.301740	0.416800	0.427080
S101	S10	0.034210	0.596140	0.034070
S111	S11	0.939710	0.676230	0.271800
S121	S12	0.272400	0.676140	0.940010
O611	O61	0.415790	0.452140	0.521270
O621	O62	0.520730	0.451890	0.415080
O631	O63	0.390500	0.532420	0.390100
O641	O64	0.129300	0.846890	0.059200
O651	O65	0.730300	0.613710	0.481300
O661	O66	0.220400	0.482970	0.404600
O671	O67	0.337300	0.453760	0.337100
O681	O68	0.059100	0.846780	0.129000
O691	O69	0.481900	0.614390	0.731100
O701	O70	0.405000	0.483050	0.221100
O711	O71	0.692000	0.551800	0.387700
O721	O72	0.387200	0.551700	0.691800
O731	O73	0.293100	0.541880	0.504200
O741	O74	0.503500	0.541810	0.292500
O751	O75	0.040400	0.580910	0.960600
O761	O76	0.961000	0.580820	0.040000
O771	O77	0.896100	0.668700	0.181200
O781	O78	0.970200	0.726790	0.305000
O791	O79	0.184200	0.670300	0.897700
O801	O80	0.305100	0.727370	0.969800
C1271	C127	0.335700	0.503780	0.335500
C1281	C128	0.261100	0.526950	0.261300
C1291	C129	0.199900	0.497300	0.199900
H731	H73	0.205300	0.461500	0.205100
C1301	C130	0.130400	0.517510	0.130500
H741	H74	0.089600	0.496200	0.089700
C1311	C131	0.123800	0.571390	0.123900
C1321	C132	0.185600	0.602270	0.185200
H751	H75	0.181300	0.638100	0.180400
C1331	C133	0.252300	0.580250	0.252100
H761	H76	0.293300	0.601400	0.293000
C1341	C134	0.045200	0.663070	0.045200
C1351	C135	0.013700	0.689520	0.090400
H771	H77	0.984300	0.671800	0.112900
C1361	C136	0.025700	0.741610	0.102400
H781	H78	0.002600	0.759200	0.131300
C1371	C137	0.071900	0.768630	0.072000
C1381	C138	0.103000	0.741820	0.026200
H791	H79	0.132700	0.759500	0.003900
C1391	C139	0.090300	0.689210	0.013300
H801	H80	0.112200	0.671500	0.983300
C1401	C140	0.087800	0.825050	0.087500
C1411	C141	0.231700	0.526400	0.438900
C1421	C142	0.157600	0.563000	0.395700
C1431	C143	0.092400	0.554400	0.314100
H811	H81	0.092900	0.524400	0.286000
C1441	C144	0.025700	0.589700	0.273000
H821	H82	0.983400	0.583300	0.217900
C1451	C145	0.023000	0.633000	0.313900
C1461	C146	0.086500	0.643000	0.394400
H831	H83	0.083700	0.673000	0.421300
C1471	C147	0.157600	0.608500	0.438800
H841	H84	0.201000	0.615900	0.492900
C1481	C148	0.875800	0.654300	0.313700
C1491	C149	0.821000	0.615400	0.274100
H851	H85	0.815000	0.602600	0.223300
C1501	C150	0.773600	0.594300	0.308300
H861	H86	0.738600	0.566000	0.283000
C1511	C151	0.779400	0.616300	0.381300
C1521	C152	0.830900	0.656200	0.418400
H871	H87	0.833800	0.671000	0.466700
C1531	C153	0.881000	0.676000	0.384600
H881	H88	0.917300	0.703700	0.410500
C1541	C154	0.729600	0.592100	0.420200
C1551	C155	0.419600	0.592200	0.728800
C1561	C156	0.381900	0.616500	0.779700
C1571	C157	0.310400	0.595500	0.773500
H891	H89	0.285700	0.567200	0.738200
C1581	C158	0.273300	0.615900	0.819900
H901	H90	0.222100	0.602900	0.812600
C1591	C159	0.312700	0.654300	0.874700
C1601	C160	0.384500	0.675800	0.882300
H911	H91	0.411100	0.702600	0.920400
C1611	C161	0.419300	0.656600	0.830800
H921	H92	0.467000	0.671900	0.833100
C1621	C162	0.314100	0.632700	0.023000
C1631	C163	0.274100	0.589700	0.026500
H931	H93	0.219000	0.583100	0.984500
C1641	C164	0.316000	0.554900	0.094100
H941	H94	0.287900	0.524900	0.095100
C1651	C165	0.396500	0.563300	0.158700
C1661	C166	0.440100	0.608000	0.157800
H951	H95	0.494700	0.615100	0.200600
C1671	C167	0.395000	0.642700	0.086000
H961	H96	0.421800	0.672700	0.082900
C1681	C168	0.440100	0.525700	0.232100
Mn131	Mn13	0.000000	0.000000	0.000000
Mn141	Mn14	0.500000	0.500000	0.500000
