data_WIWQOI_clean_PM
_symmetry_space_group_name_H-M	'P1'
_cell_length_a	10.969600
_cell_length_b	23.079200
_cell_length_c	23.327600
_cell_angle_alpha	90.000000
_cell_angle_beta	90.000000
_cell_angle_gamma	90.000000
_symmetry_Int_Tables_number 1

loop_
_symmetry_equiv_pos_as_xyz
'x,y,z'

loop_
_atom_site_label
_atom_site_type_symbol
_atom_site_fract_x
_atom_site_fract_y
_atom_site_fract_z
S11	S1	0.259410	0.930630	0.430140
C11	C1	0.274100	0.823230	0.542150
C21	C2	0.277100	0.043180	0.322500
N11	N1	0.277100	0.706820	0.427500
S21	S2	0.259410	0.430630	0.930140
C31	C3	0.274100	0.323230	0.042150
C41	C4	0.277100	0.543180	0.822500
N21	N2	0.277100	0.206820	0.927500
S31	S3	0.759410	0.930630	0.930140
C51	C5	0.774100	0.823230	0.042150
C61	C6	0.777100	0.043180	0.822500
N31	N3	0.777100	0.706820	0.927500
S41	S4	0.759410	0.430630	0.430140
C71	C7	0.774100	0.323230	0.542150
C81	C8	0.777100	0.543180	0.322500
N41	N4	0.777100	0.206820	0.427500
S51	S5	0.490590	0.819370	0.430140
C91	C9	0.475900	0.926770	0.542150
C101	C10	0.472900	0.706820	0.322500
N51	N5	0.472900	0.043180	0.427500
S61	S6	0.490590	0.319370	0.930140
C111	C11	0.475900	0.426770	0.042150
C121	C12	0.472900	0.206820	0.822500
N61	N6	0.472900	0.543180	0.927500
S71	S7	0.990590	0.819370	0.930140
C131	C13	0.975900	0.926770	0.042150
C141	C14	0.972900	0.706820	0.822500
N71	N7	0.972900	0.043180	0.927500
S81	S8	0.990590	0.319370	0.430140
C151	C15	0.975900	0.426770	0.542150
C161	C16	0.972900	0.206820	0.322500
N81	N8	0.972900	0.543180	0.427500
S91	S9	0.490590	0.930630	0.319860
C171	C17	0.475900	0.823230	0.207850
S101	S10	0.490590	0.430630	0.819860
C181	C18	0.475900	0.323230	0.707850
S111	S11	0.990590	0.930630	0.819860
C191	C19	0.975900	0.823230	0.707850
S121	S12	0.990590	0.430630	0.319860
C201	C20	0.975900	0.323230	0.207850
S131	S13	0.259410	0.819370	0.319860
C211	C21	0.274100	0.926770	0.207850
S141	S14	0.259410	0.319370	0.819860
C221	C22	0.274100	0.426770	0.707850
S151	S15	0.759410	0.819370	0.819860
C231	C23	0.774100	0.926770	0.707850
S161	S16	0.759410	0.319370	0.319860
C241	C24	0.774100	0.426770	0.207850
S171	S17	0.740590	0.069370	0.569860
C251	C25	0.725900	0.176770	0.457850
C261	C26	0.722900	0.956820	0.677500
N91	N9	0.722900	0.293180	0.572500
S181	S18	0.740590	0.569370	0.069860
C271	C27	0.725900	0.676770	0.957850
C281	C28	0.722900	0.456820	0.177500
N101	N10	0.722900	0.793180	0.072500
S191	S19	0.240590	0.069370	0.069860
C291	C29	0.225900	0.176770	0.957850
C301	C30	0.222900	0.956820	0.177500
N111	N11	0.222900	0.293180	0.072500
S201	S20	0.240590	0.569370	0.569860
C311	C31	0.225900	0.676770	0.457850
C321	C32	0.222900	0.456820	0.677500
N121	N12	0.222900	0.793180	0.572500
S211	S21	0.509410	0.180630	0.569860
C331	C33	0.524100	0.073230	0.457850
C341	C34	0.527100	0.293180	0.677500
N131	N13	0.527100	0.956820	0.572500
S221	S22	0.509410	0.680630	0.069860
C351	C35	0.524100	0.573230	0.957850
C361	C36	0.527100	0.793180	0.177500
N141	N14	0.527100	0.456820	0.072500
S231	S23	0.009410	0.180630	0.069860
C371	C37	0.024100	0.073230	0.957850
C381	C38	0.027100	0.293180	0.177500
N151	N15	0.027100	0.956820	0.072500
S241	S24	0.009410	0.680630	0.569860
C391	C39	0.024100	0.573230	0.457850
C401	C40	0.027100	0.793180	0.677500
N161	N16	0.027100	0.456820	0.572500
S251	S25	0.509410	0.069370	0.680140
C411	C41	0.524100	0.176770	0.792150
S261	S26	0.509410	0.569370	0.180140
C421	C42	0.524100	0.676770	0.292150
S271	S27	0.009410	0.069370	0.180140
C431	C43	0.024100	0.176770	0.292150
S281	S28	0.009410	0.569370	0.680140
C441	C44	0.024100	0.676770	0.792150
S291	S29	0.740590	0.180630	0.680140
C451	C45	0.725900	0.073230	0.792150
S301	S30	0.740590	0.680630	0.180140
C461	C46	0.725900	0.573230	0.292150
S311	S31	0.240590	0.180630	0.180140
C471	C47	0.225900	0.073230	0.292150
S321	S32	0.240590	0.680630	0.680140
C481	C48	0.225900	0.573230	0.792150
Mo11	Mo1	0.375000	0.875000	0.375000
Mo21	Mo2	0.375000	0.375000	0.875000
Mo31	Mo3	0.875000	0.875000	0.875000
Mo41	Mo4	0.875000	0.375000	0.375000
Mo51	Mo5	0.625000	0.125000	0.625000
Mo61	Mo6	0.625000	0.625000	0.125000
Mo71	Mo7	0.125000	0.125000	0.125000
Mo81	Mo8	0.125000	0.625000	0.625000
Cu11	Cu1	0.375000	0.875000	0.494110
Cu21	Cu2	0.375000	0.375000	0.994110
Cu31	Cu3	0.875000	0.875000	0.994110
Cu41	Cu4	0.875000	0.375000	0.494110
Cu51	Cu5	0.375000	0.875000	0.255890
Cu61	Cu6	0.375000	0.375000	0.755890
Cu71	Cu7	0.875000	0.875000	0.755890
Cu81	Cu8	0.875000	0.375000	0.255890
Cu91	Cu9	0.625000	0.125000	0.505890
Cu101	Cu10	0.625000	0.625000	0.005890
Cu111	Cu11	0.125000	0.125000	0.005890
Cu121	Cu12	0.125000	0.625000	0.505890
Cu131	Cu13	0.625000	0.125000	0.744110
Cu141	Cu14	0.625000	0.625000	0.244110
Cu151	Cu15	0.125000	0.125000	0.244110
Cu161	Cu16	0.125000	0.625000	0.744110
Cu171	Cu17	0.375000	0.994210	0.375000
Cu181	Cu18	0.375000	0.494210	0.875000
Cu191	Cu19	0.875000	0.994210	0.875000
Cu201	Cu20	0.875000	0.494210	0.375000
Cu211	Cu21	0.375000	0.755790	0.375000
Cu221	Cu22	0.375000	0.255790	0.875000
Cu231	Cu23	0.875000	0.755790	0.875000
Cu241	Cu24	0.875000	0.255790	0.375000
Cu251	Cu25	0.625000	0.005790	0.625000
Cu261	Cu26	0.625000	0.505790	0.125000
Cu271	Cu27	0.125000	0.005790	0.125000
Cu281	Cu28	0.125000	0.505790	0.625000
Cu291	Cu29	0.625000	0.244210	0.625000
Cu301	Cu30	0.625000	0.744210	0.125000
Cu311	Cu31	0.125000	0.244210	0.125000
Cu321	Cu32	0.125000	0.744210	0.625000
