data_WIWQUO_clean_PM
_symmetry_space_group_name_H-M	'P1'
_cell_length_a	10.896800
_cell_length_b	23.055300
_cell_length_c	23.287000
_cell_angle_alpha	90.000000
_cell_angle_beta	90.000000
_cell_angle_gamma	90.000000
_symmetry_Int_Tables_number 1

loop_
_symmetry_equiv_pos_as_xyz
'x,y,z'

loop_
_atom_site_label
_atom_site_type_symbol
_atom_site_fract_x
_atom_site_fract_y
_atom_site_fract_z
S11	S1	0.258690	0.930330	0.429800
N11	N1	0.274100	0.822930	0.542090
C11	C1	0.225900	0.072930	0.292090
C21	C2	0.276800	0.042910	0.322690
S21	S2	0.258690	0.430330	0.929800
N21	N2	0.274100	0.322930	0.042090
C31	C3	0.225900	0.572930	0.792090
C41	C4	0.276800	0.542910	0.822690
S31	S3	0.758690	0.930330	0.929800
N31	N3	0.774100	0.822930	0.042090
C51	C5	0.725900	0.072930	0.792090
C61	C6	0.776800	0.042910	0.822690
S41	S4	0.758690	0.430330	0.429800
N41	N4	0.774100	0.322930	0.542090
C71	C7	0.725900	0.572930	0.292090
C81	C8	0.776800	0.542910	0.322690
S51	S5	0.491310	0.819670	0.429800
N51	N5	0.475900	0.927070	0.542090
C91	C9	0.524100	0.677070	0.292090
C101	C10	0.473200	0.707090	0.322690
S61	S6	0.491310	0.319670	0.929800
N61	N6	0.475900	0.427070	0.042090
C111	C11	0.524100	0.177070	0.792090
C121	C12	0.473200	0.207090	0.822690
S71	S7	0.991310	0.819670	0.929800
N71	N7	0.975900	0.927070	0.042090
C131	C13	0.024100	0.677070	0.792090
C141	C14	0.973200	0.707090	0.822690
S81	S8	0.991310	0.319670	0.429800
N81	N8	0.975900	0.427070	0.542090
C151	C15	0.024100	0.177070	0.292090
C161	C16	0.973200	0.207090	0.322690
S91	S9	0.491310	0.930330	0.320200
N91	N9	0.475900	0.822930	0.207910
C171	C17	0.524100	0.072930	0.457910
C181	C18	0.473200	0.042910	0.427310
S101	S10	0.491310	0.430330	0.820200
N101	N10	0.475900	0.322930	0.707910
C191	C19	0.524100	0.572930	0.957910
C201	C20	0.473200	0.542910	0.927310
S111	S11	0.991310	0.930330	0.820200
N111	N11	0.975900	0.822930	0.707910
C211	C21	0.024100	0.072930	0.957910
C221	C22	0.973200	0.042910	0.927310
S121	S12	0.991310	0.430330	0.320200
N121	N12	0.975900	0.322930	0.207910
C231	C23	0.024100	0.572930	0.457910
C241	C24	0.973200	0.542910	0.427310
S131	S13	0.258690	0.819670	0.320200
N131	N13	0.274100	0.927070	0.207910
C251	C25	0.225900	0.677070	0.457910
C261	C26	0.276800	0.707090	0.427310
S141	S14	0.258690	0.319670	0.820200
N141	N14	0.274100	0.427070	0.707910
C271	C27	0.225900	0.177070	0.957910
C281	C28	0.276800	0.207090	0.927310
S151	S15	0.758690	0.819670	0.820200
N151	N15	0.774100	0.927070	0.707910
C291	C29	0.725900	0.677070	0.957910
C301	C30	0.776800	0.707090	0.927310
S161	S16	0.758690	0.319670	0.320200
N161	N16	0.774100	0.427070	0.207910
C311	C31	0.725900	0.177070	0.457910
C321	C32	0.776800	0.207090	0.427310
S171	S17	0.741310	0.069670	0.570200
C331	C33	0.723200	0.957090	0.677310
S181	S18	0.741310	0.569670	0.070200
C341	C34	0.723200	0.457090	0.177310
S191	S19	0.241310	0.069670	0.070200
C351	C35	0.223200	0.957090	0.177310
S201	S20	0.241310	0.569670	0.570200
C361	C36	0.223200	0.457090	0.677310
S211	S21	0.508690	0.180330	0.570200
C371	C37	0.526800	0.292910	0.677310
S221	S22	0.508690	0.680330	0.070200
C381	C38	0.526800	0.792910	0.177310
S231	S23	0.008690	0.180330	0.070200
C391	C39	0.026800	0.292910	0.177310
S241	S24	0.008690	0.680330	0.570200
C401	C40	0.026800	0.792910	0.677310
S251	S25	0.508690	0.069670	0.679800
C411	C41	0.526800	0.957090	0.572690
S261	S26	0.508690	0.569670	0.179800
C421	C42	0.526800	0.457090	0.072690
S271	S27	0.008690	0.069670	0.179800
C431	C43	0.026800	0.957090	0.072690
S281	S28	0.008690	0.569670	0.679800
C441	C44	0.026800	0.457090	0.572690
S291	S29	0.741310	0.180330	0.679800
C451	C45	0.723200	0.292910	0.572690
S301	S30	0.741310	0.680330	0.179800
C461	C46	0.723200	0.792910	0.072690
S311	S31	0.241310	0.180330	0.179800
C471	C47	0.223200	0.292910	0.072690
S321	S32	0.241310	0.680330	0.679800
C481	C48	0.223200	0.792910	0.572690
W11	W1	0.375000	0.875000	0.375000
W21	W2	0.375000	0.375000	0.875000
W31	W3	0.875000	0.875000	0.875000
W41	W4	0.875000	0.375000	0.375000
W51	W5	0.625000	0.125000	0.625000
W61	W6	0.625000	0.625000	0.125000
W71	W7	0.125000	0.125000	0.125000
W81	W8	0.125000	0.625000	0.625000
Cu11	Cu1	0.375000	0.875000	0.494920
Cu21	Cu2	0.375000	0.375000	0.994920
Cu31	Cu3	0.875000	0.875000	0.994920
Cu41	Cu4	0.875000	0.375000	0.494920
Cu51	Cu5	0.375000	0.875000	0.255080
Cu61	Cu6	0.375000	0.375000	0.755080
Cu71	Cu7	0.875000	0.875000	0.755080
Cu81	Cu8	0.875000	0.375000	0.255080
Cu91	Cu9	0.625000	0.125000	0.505080
Cu101	Cu10	0.625000	0.625000	0.005080
Cu111	Cu11	0.125000	0.125000	0.005080
Cu121	Cu12	0.125000	0.625000	0.505080
Cu131	Cu13	0.625000	0.125000	0.744920
Cu141	Cu14	0.625000	0.625000	0.244920
Cu151	Cu15	0.125000	0.125000	0.244920
Cu161	Cu16	0.125000	0.625000	0.744920
Cu171	Cu17	0.375000	0.994870	0.375000
Cu181	Cu18	0.375000	0.494870	0.875000
Cu191	Cu19	0.875000	0.994870	0.875000
Cu201	Cu20	0.875000	0.494870	0.375000
Cu211	Cu21	0.375000	0.755130	0.375000
Cu221	Cu22	0.375000	0.255130	0.875000
Cu231	Cu23	0.875000	0.755130	0.875000
Cu241	Cu24	0.875000	0.255130	0.375000
Cu251	Cu25	0.625000	0.005130	0.625000
Cu261	Cu26	0.625000	0.505130	0.125000
Cu271	Cu27	0.125000	0.005130	0.125000
Cu281	Cu28	0.125000	0.505130	0.625000
Cu291	Cu29	0.625000	0.244870	0.625000
Cu301	Cu30	0.625000	0.744870	0.125000
Cu311	Cu31	0.125000	0.244870	0.125000
Cu321	Cu32	0.125000	0.744870	0.625000
