data_WIYWEI_clean_PM
_symmetry_space_group_name_H-M	'P1'
_cell_length_a	12.919000
_cell_length_b	26.843300
_cell_length_c	13.292400
_cell_angle_alpha	90.000000
_cell_angle_beta	116.759000
_cell_angle_gamma	90.000000
_symmetry_Int_Tables_number 1

loop_
_symmetry_equiv_pos_as_xyz
'x,y,z'

loop_
_atom_site_label
_atom_site_type_symbol
_atom_site_fract_x
_atom_site_fract_y
_atom_site_fract_z
Sm11	Sm1	0.821630	0.001780	0.923280
O11	O1	0.034400	0.043290	0.106700
O21	O2	0.854300	0.061620	0.070600
O31	O3	0.670100	0.048490	0.794300
O41	O4	0.901300	0.944500	0.071500
O51	O5	0.910600	0.071270	0.873000
O61	O6	0.706400	0.932900	0.820000
C11	C1	0.960100	0.072600	0.114100
C21	C2	0.612900	0.078000	0.715700
C31	C3	0.996000	0.122700	0.166700
C41	C4	0.594000	0.130200	0.746400
O71	O7	0.566500	0.066710	0.612400
C51	C5	0.099000	0.144300	0.176700
C61	C6	0.925800	0.149200	0.201300
C71	C7	0.511500	0.160700	0.665400
C81	C8	0.660400	0.147300	0.855700
Sm21	Sm2	0.444910	0.006420	0.497250
H11	H1	0.147700	0.126200	0.156100
C91	C9	0.129200	0.192700	0.216900
H21	H2	0.857800	0.135000	0.195800
C101	C10	0.957200	0.197100	0.244300
H31	H3	0.467900	0.149100	0.592300
C111	C11	0.494900	0.208300	0.694300
H41	H4	0.715500	0.126600	0.909100
C121	C12	0.644600	0.195300	0.885200
O81	O8	0.302000	0.074300	0.504200
O91	O9	0.366300	0.028100	0.634500
O101	O10	0.575200	0.950900	0.649300
H51	H5	0.197100	0.207000	0.222300
C131	C13	0.056700	0.219300	0.248900
C141	C14	0.893900	0.233000	0.287400
C151	C15	0.562300	0.225600	0.803500
C161	C16	0.408900	0.248600	0.621100
H61	H6	0.688300	0.207000	0.958100
N11	N1	0.298400	0.063800	0.586000
C171	C17	0.062600	0.270600	0.287000
C181	C18	0.898800	0.214400	0.398600
C191	C19	0.769600	0.242000	0.198200
C201	C20	0.967500	0.279900	0.307600
C211	C21	0.529100	0.277700	0.810700
C221	C22	0.283200	0.230600	0.578600
C231	C23	0.429500	0.263400	0.521200
C241	C24	0.438500	0.291000	0.705700
O111	O11	0.256200	0.086800	0.636900
C251	C25	0.142700	0.308900	0.301700
H71	H7	0.868200	0.239500	0.429200
H81	H8	0.977700	0.207400	0.451100
H91	H9	0.853500	0.184500	0.385000
H101	H10	0.735500	0.268100	0.222900
H111	H11	0.725500	0.212000	0.186800
H121	H12	0.769800	0.251700	0.128700
C261	C26	0.949600	0.327400	0.338400
C271	C27	0.572100	0.310800	0.899600
H131	H13	0.271700	0.219400	0.641500
H141	H14	0.268500	0.203600	0.526600
H151	H15	0.230900	0.257500	0.541600
H161	H16	0.382400	0.291800	0.484300
H171	H17	0.409500	0.236100	0.469100
H181	H18	0.509800	0.271700	0.547200
C281	C28	0.389800	0.337600	0.691800
H191	H19	0.206400	0.303300	0.288200
C291	C29	0.124300	0.355200	0.336600
H201	H20	0.884400	0.333800	0.348900
C301	C30	0.027800	0.365100	0.353400
H211	H21	0.633100	0.301900	0.968400
C311	C31	0.522300	0.357700	0.883800
H221	H22	0.329700	0.346800	0.622700
C321	C32	0.430700	0.370700	0.780900
H231	H23	0.178100	0.380500	0.349100
C331	C33	0.011000	0.416500	0.387800
H241	H24	0.550300	0.380700	0.942500
C341	C34	0.375400	0.421400	0.767900
Sm31	Sm3	0.178370	0.501780	0.576720
O121	O12	0.965600	0.543290	0.393300
O131	O13	0.145700	0.561620	0.429400
O141	O14	0.329900	0.548490	0.705700
O151	O15	0.098700	0.444500	0.428500
O161	O16	0.089400	0.571270	0.627000
O171	O17	0.293600	0.432900	0.680000
C351	C35	0.039900	0.572600	0.385900
C361	C36	0.387100	0.578000	0.784300
C371	C37	0.004000	0.622700	0.333300
C381	C38	0.406000	0.630200	0.753600
O181	O18	0.433500	0.566710	0.887600
C391	C39	0.901000	0.644300	0.323300
C401	C40	0.074200	0.649200	0.298700
C411	C41	0.488500	0.660700	0.834600
C421	C42	0.339600	0.647300	0.644300
Sm41	Sm4	0.555090	0.506420	0.002750
H251	H25	0.852300	0.626200	0.343900
C431	C43	0.870800	0.692700	0.283100
H261	H26	0.142200	0.635000	0.304200
C441	C44	0.042800	0.697100	0.255700
H271	H27	0.532100	0.649100	0.907700
C451	C45	0.505100	0.708300	0.805700
H281	H28	0.284500	0.626600	0.590900
C461	C46	0.355400	0.695300	0.614800
O191	O19	0.698000	0.574300	0.995800
O201	O20	0.633700	0.528100	0.865500
O211	O21	0.424800	0.450900	0.850700
H291	H29	0.802900	0.707000	0.277700
C471	C47	0.943300	0.719300	0.251100
C481	C48	0.106100	0.733000	0.212600
C491	C49	0.437700	0.725600	0.696500
C501	C50	0.591100	0.748600	0.878900
H301	H30	0.311700	0.707000	0.541900
N21	N2	0.701600	0.563800	0.914000
C511	C51	0.937400	0.770600	0.213000
C521	C52	0.101200	0.714400	0.101400
C531	C53	0.230400	0.742000	0.301800
C541	C54	0.032500	0.779900	0.192400
C551	C55	0.470900	0.777700	0.689300
C561	C56	0.716800	0.730600	0.921400
C571	C57	0.570500	0.763400	0.978800
C581	C58	0.561500	0.791000	0.794300
O221	O22	0.743800	0.586800	0.863100
C591	C59	0.857300	0.808900	0.198300
H311	H31	0.131800	0.739500	0.070800
H321	H32	0.022300	0.707400	0.048900
H331	H33	0.146500	0.684500	0.115000
H341	H34	0.264500	0.768100	0.277100
H351	H35	0.274500	0.712000	0.313200
H361	H36	0.230200	0.751700	0.371300
C601	C60	0.050400	0.827400	0.161600
C611	C61	0.427900	0.810800	0.600400
H371	H37	0.728300	0.719400	0.858500
H381	H38	0.731500	0.703600	0.973400
H391	H39	0.769100	0.757500	0.958400
H401	H40	0.617600	0.791800	0.015700
H411	H41	0.590500	0.736100	0.030900
H421	H42	0.490200	0.771700	0.952800
C621	C62	0.610200	0.837600	0.808200
H431	H43	0.793600	0.803300	0.211800
C631	C63	0.875700	0.855200	0.163400
H441	H44	0.115600	0.833800	0.151100
C641	C64	0.972200	0.865100	0.146600
H451	H45	0.366900	0.801900	0.531600
C651	C65	0.477700	0.857700	0.616200
H461	H46	0.670300	0.846800	0.877300
C661	C66	0.569300	0.870700	0.719100
H471	H47	0.821900	0.880500	0.150900
C671	C67	0.989000	0.916500	0.112200
H481	H48	0.449700	0.880700	0.557500
C681	C68	0.624600	0.921400	0.732100
Sm51	Sm5	0.178370	0.998220	0.076720
O231	O23	0.965600	0.956710	0.893300
O241	O24	0.145700	0.938380	0.929400
O251	O25	0.329900	0.951510	0.205700
O261	O26	0.098700	0.055500	0.928500
O271	O27	0.089400	0.928730	0.127000
O281	O28	0.293600	0.067100	0.180000
C691	C69	0.039900	0.927400	0.885900
C701	C70	0.387100	0.922000	0.284300
C711	C71	0.004000	0.877300	0.833300
C721	C72	0.406000	0.869800	0.253600
O291	O29	0.433500	0.933290	0.387600
C731	C73	0.901000	0.855700	0.823300
C741	C74	0.074200	0.850800	0.798700
C751	C75	0.488500	0.839300	0.334600
C761	C76	0.339600	0.852700	0.144300
Sm61	Sm6	0.555090	0.993580	0.502750
H491	H49	0.852300	0.873800	0.843900
C771	C77	0.870800	0.807300	0.783100
H501	H50	0.142200	0.865000	0.804200
C781	C78	0.042800	0.802900	0.755700
H511	H51	0.532100	0.850900	0.407700
C791	C79	0.505100	0.791700	0.305700
H521	H52	0.284500	0.873400	0.090900
C801	C80	0.355400	0.804700	0.114800
O301	O30	0.698000	0.925700	0.495800
O311	O31	0.633700	0.971900	0.365500
O321	O32	0.424800	0.049100	0.350700
H531	H53	0.802900	0.793000	0.777700
C811	C81	0.943300	0.780700	0.751100
C821	C82	0.106100	0.767000	0.712600
C831	C83	0.437700	0.774400	0.196500
C841	C84	0.591100	0.751400	0.378900
H541	H54	0.311700	0.793000	0.041900
N31	N3	0.701600	0.936200	0.414000
C851	C85	0.937400	0.729400	0.713000
C861	C86	0.101200	0.785600	0.601400
C871	C87	0.230400	0.758000	0.801800
C881	C88	0.032500	0.720100	0.692400
C891	C89	0.470900	0.722300	0.189300
C901	C90	0.716800	0.769400	0.421400
C911	C91	0.570500	0.736600	0.478800
C921	C92	0.561500	0.709000	0.294300
O331	O33	0.743800	0.913200	0.363100
C931	C93	0.857300	0.691100	0.698300
H551	H55	0.131800	0.760500	0.570800
H561	H56	0.022300	0.792600	0.548900
H571	H57	0.146500	0.815500	0.615000
H581	H58	0.264500	0.731900	0.777100
H591	H59	0.274500	0.788000	0.813200
H601	H60	0.230200	0.748300	0.871300
C941	C94	0.050400	0.672600	0.661600
C951	C95	0.427900	0.689200	0.100400
H611	H61	0.728300	0.780600	0.358500
H621	H62	0.731500	0.796400	0.473400
H631	H63	0.769100	0.742500	0.458400
H641	H64	0.617600	0.708200	0.515700
H651	H65	0.590500	0.763900	0.530900
H661	H66	0.490200	0.728300	0.452800
C961	C96	0.610200	0.662400	0.308200
H671	H67	0.793600	0.696700	0.711800
C971	C97	0.875700	0.644800	0.663400
H681	H68	0.115600	0.666200	0.651100
C981	C98	0.972200	0.634900	0.646600
H691	H69	0.366900	0.698100	0.031600
C991	C99	0.477700	0.642300	0.116200
H701	H70	0.670300	0.653200	0.377300
C1001	C100	0.569300	0.629300	0.219100
H711	H71	0.821900	0.619500	0.650900
C1011	C101	0.989000	0.583500	0.612200
H721	H72	0.449700	0.619300	0.057500
C1021	C102	0.624600	0.578600	0.232100
Sm71	Sm7	0.821630	0.498220	0.423280
O341	O34	0.034400	0.456710	0.606700
O351	O35	0.854300	0.438380	0.570600
O361	O36	0.670100	0.451510	0.294300
O371	O37	0.901300	0.555500	0.571500
O381	O38	0.910600	0.428730	0.373000
O391	O39	0.706400	0.567100	0.320000
C1031	C103	0.960100	0.427400	0.614100
C1041	C104	0.612900	0.422000	0.215700
C1051	C105	0.996000	0.377300	0.666700
C1061	C106	0.594000	0.369800	0.246400
O401	O40	0.566500	0.433290	0.112400
C1071	C107	0.099000	0.355700	0.676700
C1081	C108	0.925800	0.350800	0.701300
C1091	C109	0.511500	0.339300	0.165400
C1101	C110	0.660400	0.352700	0.355700
Sm81	Sm8	0.444910	0.493580	0.997250
H731	H73	0.147700	0.373800	0.656100
C1111	C111	0.129200	0.307300	0.716900
H741	H74	0.857800	0.365000	0.695800
C1121	C112	0.957200	0.302900	0.744300
H751	H75	0.467900	0.350900	0.092300
C1131	C113	0.494900	0.291700	0.194300
H761	H76	0.715500	0.373400	0.409100
C1141	C114	0.644600	0.304700	0.385200
O411	O41	0.302000	0.425700	0.004200
O421	O42	0.366300	0.471900	0.134500
O431	O43	0.575200	0.549100	0.149300
H771	H77	0.197100	0.293000	0.722300
C1151	C115	0.056700	0.280700	0.748900
C1161	C116	0.893900	0.267000	0.787400
C1171	C117	0.562300	0.274400	0.303500
C1181	C118	0.408900	0.251400	0.121100
H781	H78	0.688300	0.293000	0.458100
N41	N4	0.298400	0.436200	0.086000
C1191	C119	0.062600	0.229400	0.787000
C1201	C120	0.898800	0.285600	0.898600
C1211	C121	0.769600	0.258000	0.698200
C1221	C122	0.967500	0.220100	0.807600
C1231	C123	0.529100	0.222300	0.310700
C1241	C124	0.283200	0.269400	0.078600
C1251	C125	0.429500	0.236600	0.021200
C1261	C126	0.438500	0.209000	0.205700
O441	O44	0.256200	0.413200	0.136900
C1271	C127	0.142700	0.191100	0.801700
H791	H79	0.868200	0.260500	0.929200
H801	H80	0.977700	0.292600	0.951100
H811	H81	0.853500	0.315500	0.885000
H821	H82	0.735500	0.231900	0.722900
H831	H83	0.725500	0.288000	0.686800
H841	H84	0.769800	0.248300	0.628700
C1281	C128	0.949600	0.172600	0.838400
C1291	C129	0.572100	0.189200	0.399600
H851	H85	0.271700	0.280600	0.141500
H861	H86	0.268500	0.296400	0.026600
H871	H87	0.230900	0.242500	0.041600
H881	H88	0.382400	0.208200	0.984300
H891	H89	0.409500	0.263900	0.969100
H901	H90	0.509800	0.228300	0.047200
C1301	C130	0.389800	0.162400	0.191800
H911	H91	0.206400	0.196700	0.788200
C1311	C131	0.124300	0.144800	0.836600
H921	H92	0.884400	0.166200	0.848900
C1321	C132	0.027800	0.134900	0.853400
H931	H93	0.633100	0.198100	0.468400
C1331	C133	0.522300	0.142300	0.383800
H941	H94	0.329700	0.153200	0.122700
C1341	C134	0.430700	0.129300	0.280900
H951	H95	0.178100	0.119500	0.849100
C1351	C135	0.011000	0.083500	0.887800
H961	H96	0.550300	0.119300	0.442500
C1361	C136	0.375400	0.078600	0.267900
