data_WIYWOS_clean_PM
_symmetry_space_group_name_H-M	'P1'
_cell_length_a	13.088200
_cell_length_b	26.666500
_cell_length_c	13.133600
_cell_angle_alpha	90.000000
_cell_angle_beta	116.072000
_cell_angle_gamma	90.000000
_symmetry_Int_Tables_number 1

loop_
_symmetry_equiv_pos_as_xyz
'x,y,z'

loop_
_atom_site_label
_atom_site_type_symbol
_atom_site_fract_x
_atom_site_fract_y
_atom_site_fract_z
Gd11	Gd1	0.820700	0.004860	0.918890
O11	O1	0.877100	0.067500	0.063700
O21	O2	0.688900	0.053240	0.782000
O31	O3	0.943400	0.952960	0.883600
O41	O4	0.890800	0.951880	0.074000
O51	O5	0.926100	0.065270	0.870300
O61	O6	0.695300	0.937360	0.832100
C11	C1	0.979800	0.076900	0.112800
C21	C2	0.621800	0.081200	0.703800
C31	C3	0.014100	0.128000	0.166300
C41	C4	0.602800	0.133000	0.736600
O71	O7	0.569900	0.068450	0.603400
C51	C5	0.117200	0.148400	0.180000
C61	C6	0.940900	0.155500	0.194800
C71	C7	0.518500	0.163800	0.655900
C81	C8	0.668100	0.150900	0.847200
Gd21	Gd2	0.450810	0.006760	0.503690
H11	H1	0.167000	0.129500	0.162400
C91	C9	0.145500	0.197200	0.220300
H21	H2	0.872000	0.141900	0.185500
C101	C10	0.971000	0.203300	0.237100
H31	H3	0.474400	0.152100	0.582900
C111	C11	0.502400	0.211300	0.686300
H41	H4	0.722700	0.130200	0.900400
C121	C12	0.652100	0.198900	0.877800
O81	O8	0.312500	0.075100	0.508700
O91	O9	0.384500	0.032800	0.649000
O101	O10	0.578300	0.953900	0.654900
H51	H5	0.214000	0.211100	0.228900
C131	C13	0.073100	0.224500	0.247000
C141	C14	0.907100	0.240000	0.278500
C151	C15	0.566900	0.229200	0.796200
C161	C16	0.419300	0.251200	0.613300
H61	H6	0.696600	0.210900	0.950500
N11	N1	0.308500	0.066000	0.597000
C171	C17	0.077600	0.276600	0.284200
C181	C18	0.904000	0.221900	0.387500
C191	C19	0.787900	0.250400	0.185600
C201	C20	0.982000	0.286600	0.302400
C211	C21	0.534900	0.281100	0.802800
C221	C22	0.295200	0.232400	0.572600
C231	C23	0.439300	0.266400	0.513400
C241	C24	0.446600	0.293900	0.698900
O111	O11	0.270200	0.088500	0.639000
C251	C25	0.156000	0.315000	0.300400
H71	H7	0.873400	0.247000	0.418100
H81	H8	0.983000	0.215000	0.440000
H91	H9	0.858700	0.192000	0.373900
H101	H10	0.753700	0.276400	0.210300
H111	H11	0.743700	0.220400	0.174200
H121	H12	0.788000	0.260000	0.116100
C261	C26	0.963300	0.334400	0.332400
C271	C27	0.573900	0.314400	0.890800
H131	H13	0.283800	0.221200	0.635500
H141	H14	0.280600	0.205500	0.520500
H151	H15	0.242900	0.259400	0.535600
H161	H16	0.392300	0.294800	0.476400
H171	H17	0.419300	0.239100	0.461300
H181	H18	0.519600	0.274700	0.539400
C281	C28	0.397800	0.340900	0.683900
H191	H19	0.219200	0.309000	0.287300
C291	C29	0.139800	0.361300	0.335400
H201	H20	0.897600	0.341300	0.340500
C301	C30	0.042500	0.372000	0.350200
H211	H21	0.631600	0.305000	0.960600
C311	C31	0.528500	0.361200	0.876400
H221	H22	0.338800	0.349900	0.614500
C321	C32	0.437500	0.374500	0.773200
H231	H23	0.194300	0.386100	0.349700
C331	C33	0.025300	0.423400	0.384700
H241	H24	0.557900	0.384400	0.935100
C341	C34	0.381000	0.425400	0.759400
Gd31	Gd3	0.179300	0.504860	0.581110
O121	O12	0.122900	0.567500	0.436300
O131	O13	0.311100	0.553240	0.718000
O141	O14	0.056600	0.452960	0.616400
O151	O15	0.109200	0.451880	0.426000
O161	O16	0.073900	0.565270	0.629700
O171	O17	0.304700	0.437360	0.667900
C351	C35	0.020200	0.576900	0.387200
C361	C36	0.378200	0.581200	0.796200
C371	C37	0.985900	0.628000	0.333700
C381	C38	0.397200	0.633000	0.763400
O181	O18	0.430100	0.568450	0.896600
C391	C39	0.882800	0.648400	0.320000
C401	C40	0.059100	0.655500	0.305200
C411	C41	0.481500	0.663800	0.844100
C421	C42	0.331900	0.650900	0.652800
Gd41	Gd4	0.549190	0.506760	0.996310
H251	H25	0.833000	0.629500	0.337600
C431	C43	0.854500	0.697200	0.279700
H261	H26	0.128000	0.641900	0.314500
C441	C44	0.029000	0.703300	0.262900
H271	H27	0.525600	0.652100	0.917100
C451	C45	0.497600	0.711300	0.813700
H281	H28	0.277300	0.630200	0.599600
C461	C46	0.347900	0.698900	0.622200
O191	O19	0.687500	0.575100	0.991300
O201	O20	0.615500	0.532800	0.851000
O211	O21	0.421700	0.453900	0.845100
H291	H29	0.786000	0.711100	0.271100
C471	C47	0.926900	0.724500	0.253000
C481	C48	0.092900	0.740000	0.221500
C491	C49	0.433100	0.729200	0.703800
C501	C50	0.580700	0.751200	0.886700
H301	H30	0.303400	0.710900	0.549500
N21	N2	0.691500	0.566000	0.903000
C511	C51	0.922400	0.776600	0.215800
C521	C52	0.096000	0.721900	0.112500
C531	C53	0.212100	0.750400	0.314400
C541	C54	0.018000	0.786600	0.197600
C551	C55	0.465100	0.781100	0.697200
C561	C56	0.704800	0.732400	0.927400
C571	C57	0.560700	0.766400	0.986600
C581	C58	0.553400	0.793900	0.801100
O221	O22	0.729800	0.588500	0.861000
C591	C59	0.844000	0.815000	0.199600
H311	H31	0.126600	0.747000	0.081900
H321	H32	0.017000	0.715000	0.060000
H331	H33	0.141300	0.692000	0.126100
H341	H34	0.246300	0.776400	0.289700
H351	H35	0.256300	0.720400	0.325800
H361	H36	0.212000	0.760000	0.383900
C601	C60	0.036700	0.834400	0.167600
C611	C61	0.426100	0.814400	0.609200
H371	H37	0.716200	0.721200	0.864500
H381	H38	0.719400	0.705500	0.979500
H391	H39	0.757100	0.759400	0.964400
H401	H40	0.607700	0.794800	0.023600
H411	H41	0.580700	0.739100	0.038700
H421	H42	0.480400	0.774700	0.960600
C621	C62	0.602200	0.840900	0.816100
H431	H43	0.780800	0.809000	0.212700
C631	C63	0.860200	0.861300	0.164600
H441	H44	0.102400	0.841300	0.159500
C641	C64	0.957500	0.872000	0.149800
H451	H45	0.368400	0.805000	0.539400
C651	C65	0.471500	0.861200	0.623600
H461	H46	0.661200	0.849900	0.885500
C661	C66	0.562500	0.874500	0.726800
H471	H47	0.805700	0.886100	0.150300
C671	C67	0.974700	0.923400	0.115300
H481	H48	0.442100	0.884400	0.564900
C681	C68	0.619000	0.925400	0.740600
Gd51	Gd5	0.179300	0.995140	0.081110
O231	O23	0.122900	0.932500	0.936300
O241	O24	0.311100	0.946760	0.218000
O251	O25	0.056600	0.047040	0.116400
O261	O26	0.109200	0.048120	0.926000
O271	O27	0.073900	0.934730	0.129700
O281	O28	0.304700	0.062640	0.167900
C691	C69	0.020200	0.923100	0.887200
C701	C70	0.378200	0.918800	0.296200
C711	C71	0.985900	0.872000	0.833700
C721	C72	0.397200	0.867000	0.263400
O291	O29	0.430100	0.931550	0.396600
C731	C73	0.882800	0.851600	0.820000
C741	C74	0.059100	0.844500	0.805200
C751	C75	0.481500	0.836200	0.344100
C761	C76	0.331900	0.849100	0.152800
Gd61	Gd6	0.549190	0.993240	0.496310
H491	H49	0.833000	0.870500	0.837600
C771	C77	0.854500	0.802800	0.779700
H501	H50	0.128000	0.858100	0.814500
C781	C78	0.029000	0.796700	0.762900
H511	H51	0.525600	0.847900	0.417100
C791	C79	0.497600	0.788700	0.313700
H521	H52	0.277300	0.869800	0.099600
C801	C80	0.347900	0.801100	0.122200
O301	O30	0.687500	0.924900	0.491300
O311	O31	0.615500	0.967200	0.351000
O321	O32	0.421700	0.046100	0.345100
H531	H53	0.786000	0.788900	0.771100
C811	C81	0.926900	0.775500	0.753000
C821	C82	0.092900	0.760000	0.721500
C831	C83	0.433100	0.770800	0.203800
C841	C84	0.580700	0.748800	0.386700
H541	H54	0.303400	0.789100	0.049500
N31	N3	0.691500	0.934000	0.403000
C851	C85	0.922400	0.723400	0.715800
C861	C86	0.096000	0.778100	0.612500
C871	C87	0.212100	0.749600	0.814400
C881	C88	0.018000	0.713400	0.697600
C891	C89	0.465100	0.718900	0.197200
C901	C90	0.704800	0.767600	0.427400
C911	C91	0.560700	0.733600	0.486600
C921	C92	0.553400	0.706100	0.301100
O331	O33	0.729800	0.911500	0.361000
C931	C93	0.844000	0.685000	0.699600
H551	H55	0.126600	0.753000	0.581900
H561	H56	0.017000	0.785000	0.560000
H571	H57	0.141300	0.808000	0.626100
H581	H58	0.246300	0.723600	0.789700
H591	H59	0.256300	0.779600	0.825800
H601	H60	0.212000	0.740000	0.883900
C941	C94	0.036700	0.665600	0.667600
C951	C95	0.426100	0.685600	0.109200
H611	H61	0.716200	0.778800	0.364500
H621	H62	0.719400	0.794500	0.479500
H631	H63	0.757100	0.740600	0.464400
H641	H64	0.607700	0.705200	0.523600
H651	H65	0.580700	0.760900	0.538700
H661	H66	0.480400	0.725300	0.460600
C961	C96	0.602200	0.659100	0.316100
H671	H67	0.780800	0.691000	0.712700
C971	C97	0.860200	0.638700	0.664600
H681	H68	0.102400	0.658700	0.659500
C981	C98	0.957500	0.628000	0.649800
H691	H69	0.368400	0.695000	0.039400
C991	C99	0.471500	0.638800	0.123600
H701	H70	0.661200	0.650100	0.385500
C1001	C100	0.562500	0.625500	0.226800
H711	H71	0.805700	0.613900	0.650300
C1011	C101	0.974700	0.576600	0.615300
H721	H72	0.442100	0.615600	0.064900
C1021	C102	0.619000	0.574600	0.240600
Gd71	Gd7	0.820700	0.495140	0.418890
O341	O34	0.877100	0.432500	0.563700
O351	O35	0.688900	0.446760	0.282000
O361	O36	0.943400	0.547040	0.383600
O371	O37	0.890800	0.548120	0.574000
O381	O38	0.926100	0.434730	0.370300
O391	O39	0.695300	0.562640	0.332100
C1031	C103	0.979800	0.423100	0.612800
C1041	C104	0.621800	0.418800	0.203800
C1051	C105	0.014100	0.372000	0.666300
C1061	C106	0.602800	0.367000	0.236600
O401	O40	0.569900	0.431550	0.103400
C1071	C107	0.117200	0.351600	0.680000
C1081	C108	0.940900	0.344500	0.694800
C1091	C109	0.518500	0.336200	0.155900
C1101	C110	0.668100	0.349100	0.347200
Gd81	Gd8	0.450810	0.493240	0.003690
H731	H73	0.167000	0.370500	0.662400
C1111	C111	0.145500	0.302800	0.720300
H741	H74	0.872000	0.358100	0.685500
C1121	C112	0.971000	0.296700	0.737100
H751	H75	0.474400	0.347900	0.082900
C1131	C113	0.502400	0.288700	0.186300
H761	H76	0.722700	0.369800	0.400400
C1141	C114	0.652100	0.301100	0.377800
O411	O41	0.312500	0.424900	0.008700
O421	O42	0.384500	0.467200	0.149000
O431	O43	0.578300	0.546100	0.154900
H771	H77	0.214000	0.288900	0.728900
C1151	C115	0.073100	0.275500	0.747000
C1161	C116	0.907100	0.260000	0.778500
C1171	C117	0.566900	0.270800	0.296200
C1181	C118	0.419300	0.248800	0.113300
H781	H78	0.696600	0.289100	0.450500
N41	N4	0.308500	0.434000	0.097000
C1191	C119	0.077600	0.223400	0.784200
C1201	C120	0.904000	0.278100	0.887500
C1211	C121	0.787900	0.249600	0.685600
C1221	C122	0.982000	0.213400	0.802400
C1231	C123	0.534900	0.218900	0.302800
C1241	C124	0.295200	0.267600	0.072600
C1251	C125	0.439300	0.233600	0.013400
C1261	C126	0.446600	0.206100	0.198900
O441	O44	0.270200	0.411500	0.139000
C1271	C127	0.156000	0.185000	0.800400
H791	H79	0.873400	0.253000	0.918100
H801	H80	0.983000	0.285000	0.940000
H811	H81	0.858700	0.308000	0.873900
H821	H82	0.753700	0.223600	0.710300
H831	H83	0.743700	0.279600	0.674200
H841	H84	0.788000	0.240000	0.616100
C1281	C128	0.963300	0.165600	0.832400
C1291	C129	0.573900	0.185600	0.390800
H851	H85	0.283800	0.278800	0.135500
H861	H86	0.280600	0.294500	0.020500
H871	H87	0.242900	0.240600	0.035600
H881	H88	0.392300	0.205200	0.976400
H891	H89	0.419300	0.260900	0.961300
H901	H90	0.519600	0.225300	0.039400
C1301	C130	0.397800	0.159100	0.183900
H911	H91	0.219200	0.191000	0.787300
C1311	C131	0.139800	0.138700	0.835400
H921	H92	0.897600	0.158700	0.840500
C1321	C132	0.042500	0.128000	0.850200
H931	H93	0.631600	0.195000	0.460600
C1331	C133	0.528500	0.138800	0.376400
H941	H94	0.338800	0.150100	0.114500
C1341	C134	0.437500	0.125500	0.273200
H951	H95	0.194300	0.113900	0.849700
C1351	C135	0.025300	0.076600	0.884700
H961	H96	0.557900	0.115600	0.435100
C1361	C136	0.381000	0.074600	0.259400
