data_WIZKOH_clean_PM
_symmetry_space_group_name_H-M	'P1'
_cell_length_a	15.653000
_cell_length_b	13.533000
_cell_length_c	13.615000
_cell_angle_alpha	90.000000
_cell_angle_beta	103.918000
_cell_angle_gamma	90.000000
_symmetry_Int_Tables_number 1

loop_
_symmetry_equiv_pos_as_xyz
'x,y,z'

loop_
_atom_site_label
_atom_site_type_symbol
_atom_site_fract_x
_atom_site_fract_y
_atom_site_fract_z
Cu11	Cu1	0.572630	0.057580	0.524460
O11	O1	0.511100	0.145200	0.416400
O21	O2	0.390900	0.048800	0.376700
O31	O3	0.398100	0.469700	0.077900
O41	O4	0.517300	0.372600	0.118500
N11	N1	0.705400	0.385600	0.063000
N21	N2	0.161100	0.292800	0.187800
C11	C1	0.387900	0.199900	0.293200
C21	C2	0.435900	0.263200	0.245900
H11	H1	0.498300	0.258100	0.260300
C31	C3	0.392600	0.333000	0.178400
C41	C4	0.301800	0.341100	0.159200
H21	H2	0.271600	0.388800	0.112200
C51	C5	0.255600	0.280100	0.208300
C61	C6	0.296300	0.207500	0.274600
H31	H3	0.263300	0.164500	0.306500
C71	C7	0.129400	0.385200	0.184000
H41	H4	0.168700	0.439700	0.196700
C81	C8	0.041700	0.400500	0.162000
H51	H5	0.020600	0.466400	0.160900
C91	C9	0.982300	0.325100	0.141300
C101	C10	0.017600	0.229900	0.146900
H61	H6	0.979200	0.174500	0.135800
C111	C11	0.106000	0.215300	0.168000
H71	H7	0.128900	0.150200	0.168700
C121	C12	0.886200	0.343600	0.113900
C131	C13	0.855800	0.439700	0.090600
H81	H8	0.896000	0.492400	0.091000
C141	C14	0.767300	0.456500	0.067200
H91	H9	0.747700	0.522500	0.052900
C151	C15	0.736400	0.294900	0.082800
H101	H10	0.695200	0.242800	0.079400
C161	C16	0.824900	0.271100	0.108100
H111	H11	0.842800	0.204300	0.121500
C171	C17	0.433900	0.126200	0.368700
C181	C18	0.440100	0.397000	0.120700
Cu21	Cu2	0.427370	0.557580	0.975540
O51	O5	0.488900	0.645200	0.083600
O61	O6	0.609100	0.548800	0.123300
O71	O7	0.601900	0.969700	0.422100
O81	O8	0.482700	0.872600	0.381500
N31	N3	0.294600	0.885600	0.437000
N41	N4	0.838900	0.792800	0.312200
C191	C19	0.612100	0.699900	0.206800
C201	C20	0.564100	0.763200	0.254100
H121	H12	0.501700	0.758100	0.239700
C211	C21	0.607400	0.833000	0.321600
C221	C22	0.698200	0.841100	0.340800
H131	H13	0.728400	0.888800	0.387800
C231	C23	0.744400	0.780100	0.291700
C241	C24	0.703700	0.707500	0.225400
H141	H14	0.736700	0.664500	0.193500
C251	C25	0.870600	0.885200	0.316000
H151	H15	0.831300	0.939700	0.303300
C261	C26	0.958300	0.900500	0.338000
H161	H16	0.979400	0.966400	0.339100
C271	C27	0.017700	0.825100	0.358700
C281	C28	0.982400	0.729900	0.353100
H171	H17	0.020800	0.674500	0.364200
C291	C29	0.894000	0.715300	0.332000
H181	H18	0.871100	0.650200	0.331300
C301	C30	0.113800	0.843600	0.386100
C311	C31	0.144200	0.939700	0.409400
H191	H19	0.104000	0.992400	0.409000
C321	C32	0.232700	0.956500	0.432800
H201	H20	0.252300	0.022500	0.447100
C331	C33	0.263600	0.794900	0.417200
H211	H21	0.304800	0.742800	0.420600
C341	C34	0.175100	0.771100	0.391900
H221	H22	0.157200	0.704300	0.378500
C351	C35	0.566100	0.626200	0.131300
C361	C36	0.559900	0.897000	0.379300
Cu31	Cu3	0.427370	0.942420	0.475540
O91	O9	0.488900	0.854800	0.583600
O101	O10	0.609100	0.951200	0.623300
O111	O11	0.601900	0.530300	0.922100
O121	O12	0.482700	0.627400	0.881500
N51	N5	0.294600	0.614400	0.937000
N61	N6	0.838900	0.707200	0.812200
C371	C37	0.612100	0.800100	0.706800
C381	C38	0.564100	0.736800	0.754100
H231	H23	0.501700	0.741900	0.739700
C391	C39	0.607400	0.667000	0.821600
C401	C40	0.698200	0.658900	0.840800
H241	H24	0.728400	0.611200	0.887800
C411	C41	0.744400	0.719900	0.791700
C421	C42	0.703700	0.792500	0.725400
H251	H25	0.736700	0.835500	0.693500
C431	C43	0.870600	0.614800	0.816000
H261	H26	0.831300	0.560300	0.803300
C441	C44	0.958300	0.599500	0.838000
H271	H27	0.979400	0.533600	0.839100
C451	C45	0.017700	0.674900	0.858700
C461	C46	0.982400	0.770100	0.853100
H281	H28	0.020800	0.825500	0.864200
C471	C47	0.894000	0.784700	0.832000
H291	H29	0.871100	0.849800	0.831300
C481	C48	0.113800	0.656400	0.886100
C491	C49	0.144200	0.560300	0.909400
H301	H30	0.104000	0.507600	0.909000
C501	C50	0.232700	0.543500	0.932800
H311	H31	0.252300	0.477500	0.947100
C511	C51	0.263600	0.705100	0.917200
H321	H32	0.304800	0.757200	0.920600
C521	C52	0.175100	0.728900	0.891900
H331	H33	0.157200	0.795700	0.878500
C531	C53	0.566100	0.873800	0.631300
C541	C54	0.559900	0.603000	0.879300
Cu41	Cu4	0.572630	0.442420	0.024460
O131	O13	0.511100	0.354800	0.916400
O141	O14	0.390900	0.451200	0.876700
O151	O15	0.398100	0.030300	0.577900
O161	O16	0.517300	0.127400	0.618500
N71	N7	0.705400	0.114400	0.563000
N81	N8	0.161100	0.207200	0.687800
C551	C55	0.387900	0.300100	0.793200
C561	C56	0.435900	0.236800	0.745900
H341	H34	0.498300	0.241900	0.760300
C571	C57	0.392600	0.167000	0.678400
C581	C58	0.301800	0.158900	0.659200
H351	H35	0.271600	0.111200	0.612200
C591	C59	0.255600	0.219900	0.708300
C601	C60	0.296300	0.292500	0.774600
H361	H36	0.263300	0.335500	0.806500
C611	C61	0.129400	0.114800	0.684000
H371	H37	0.168700	0.060300	0.696700
C621	C62	0.041700	0.099500	0.662000
H381	H38	0.020600	0.033600	0.660900
C631	C63	0.982300	0.174900	0.641300
C641	C64	0.017600	0.270100	0.646900
H391	H39	0.979200	0.325500	0.635800
C651	C65	0.106000	0.284700	0.668000
H401	H40	0.128900	0.349800	0.668700
C661	C66	0.886200	0.156400	0.613900
C671	C67	0.855800	0.060300	0.590600
H411	H41	0.896000	0.007600	0.591000
C681	C68	0.767300	0.043500	0.567200
H421	H42	0.747700	0.977500	0.552900
C691	C69	0.736400	0.205100	0.582800
H431	H43	0.695200	0.257200	0.579400
C701	C70	0.824900	0.228900	0.608100
H441	H44	0.842800	0.295700	0.621500
C711	C71	0.433900	0.373800	0.868700
C721	C72	0.440100	0.103000	0.620700
