data_WOBHOM_clean_PM
_symmetry_space_group_name_H-M	'P1'
_cell_length_a	10.334900
_cell_length_b	11.896200
_cell_length_c	20.289400
_cell_angle_alpha	90.000000
_cell_angle_beta	90.000000
_cell_angle_gamma	90.000000
_symmetry_Int_Tables_number 1

loop_
_symmetry_equiv_pos_as_xyz
'x,y,z'

loop_
_atom_site_label
_atom_site_type_symbol
_atom_site_fract_x
_atom_site_fract_y
_atom_site_fract_z
Zn11	Zn1	0.142460	0.676500	0.990720
Zn21	Zn2	0.455620	0.583250	0.990260
O11	O1	0.179600	0.598000	0.906800
O21	O2	0.384800	0.543000	0.903600
O31	O3	0.122000	0.454700	0.576500
O41	O4	0.332500	0.412500	0.573000
O51	O5	0.119200	0.838000	0.007800
O61	O6	0.339600	0.731600	0.991200
O71	O7	0.458700	0.875300	0.024600
C11	C1	0.258800	0.529900	0.805700
C21	C2	0.242300	0.473500	0.672400
C31	C3	0.148500	0.538400	0.773500
C41	C4	0.370800	0.497300	0.771600
H11	H1	0.449600	0.494800	0.793700
C51	C5	0.137900	0.508200	0.709000
H21	H2	0.057000	0.511200	0.688900
C61	C6	0.365600	0.468500	0.704600
H31	H3	0.439700	0.447000	0.681800
C71	C7	0.278300	0.558600	0.877900
C81	C8	0.353000	0.828500	0.013500
C91	C9	0.229900	0.893400	0.031400
H41	H4	0.234000	0.968000	0.011000
C101	C10	0.232500	0.443900	0.602500
N11	N1	0.032000	0.575500	0.802200
H51	H5	0.041800	0.580200	0.845700
H61	H6	0.969100	0.526900	0.792900
H71	H7	0.011600	0.642800	0.786100
C111	C11	0.224000	0.906800	0.106800
H81	H8	0.139300	0.932000	0.119400
H91	H9	0.287200	0.960900	0.120700
H101	H10	0.241700	0.835700	0.127400
Zn31	Zn3	0.357540	0.323500	0.490720
Zn41	Zn4	0.044380	0.416750	0.490260
O81	O8	0.320400	0.402000	0.406800
O91	O9	0.115200	0.457000	0.403600
O101	O10	0.378000	0.545300	0.076500
O111	O11	0.167500	0.587500	0.073000
O121	O12	0.380800	0.162000	0.507800
O131	O13	0.160400	0.268400	0.491200
O141	O14	0.041300	0.124700	0.524600
C121	C12	0.241200	0.470100	0.305700
C131	C13	0.257700	0.526500	0.172400
C141	C14	0.351500	0.461600	0.273500
C151	C15	0.129200	0.502700	0.271600
H111	H11	0.050400	0.505200	0.293700
C161	C16	0.362100	0.491800	0.209000
H121	H12	0.443000	0.488800	0.188900
C171	C17	0.134400	0.531500	0.204600
H131	H13	0.060300	0.553000	0.181800
C181	C18	0.221700	0.441400	0.377900
C191	C19	0.147000	0.171500	0.513500
C201	C20	0.270100	0.106600	0.531400
H141	H14	0.266000	0.032000	0.511000
C211	C21	0.267500	0.556100	0.102500
N21	N2	0.468000	0.424500	0.302200
H151	H15	0.458200	0.419800	0.345700
H161	H16	0.530900	0.473100	0.292900
H171	H17	0.488400	0.357200	0.286100
C221	C22	0.276000	0.093200	0.606800
H181	H18	0.360700	0.068000	0.619400
H191	H19	0.212800	0.039100	0.620700
H201	H20	0.258300	0.164300	0.627400
Zn51	Zn5	0.857540	0.176500	0.509280
Zn61	Zn6	0.544380	0.083250	0.509740
O151	O15	0.820400	0.098000	0.593200
O161	O16	0.615200	0.043000	0.596400
O171	O17	0.878000	0.954700	0.923500
O181	O18	0.667500	0.912500	0.927000
O191	O19	0.880800	0.338000	0.492200
O201	O20	0.660400	0.231600	0.508800
O211	O21	0.541300	0.375300	0.475400
C231	C23	0.741200	0.029900	0.694300
C241	C24	0.757700	0.973500	0.827600
C251	C25	0.851500	0.038400	0.726500
C261	C26	0.629200	0.997300	0.728400
H211	H21	0.550400	0.994800	0.706300
C271	C27	0.862100	0.008200	0.791000
H221	H22	0.943000	0.011200	0.811100
C281	C28	0.634400	0.968500	0.795400
H231	H23	0.560300	0.947000	0.818200
C291	C29	0.721700	0.058600	0.622100
C301	C30	0.647000	0.328500	0.486500
C311	C31	0.770100	0.393400	0.468600
H241	H24	0.766000	0.468000	0.489000
C321	C32	0.767500	0.943900	0.897500
N31	N3	0.968000	0.075500	0.697800
H251	H25	0.958200	0.080200	0.654300
H261	H26	0.030900	0.026900	0.707100
H271	H27	0.988400	0.142800	0.713900
C331	C33	0.776000	0.406800	0.393200
H281	H28	0.860700	0.432000	0.380600
H291	H29	0.712800	0.460900	0.379300
H301	H30	0.758300	0.335700	0.372600
Zn71	Zn7	0.642460	0.823500	0.009280
Zn81	Zn8	0.955620	0.916750	0.009740
O221	O22	0.679600	0.902000	0.093200
O231	O23	0.884800	0.957000	0.096400
O241	O24	0.622000	0.045300	0.423500
O251	O25	0.832500	0.087500	0.427000
O261	O26	0.619200	0.662000	0.992200
O271	O27	0.839600	0.768400	0.008800
O281	O28	0.958700	0.624700	0.975400
C341	C34	0.758800	0.970100	0.194300
C351	C35	0.742300	0.026500	0.327600
C361	C36	0.648500	0.961600	0.226500
C371	C37	0.870800	0.002700	0.228400
H311	H31	0.949600	0.005200	0.206300
C381	C38	0.637900	0.991800	0.291000
H321	H32	0.557000	0.988800	0.311100
C391	C39	0.865600	0.031500	0.295400
H331	H33	0.939700	0.053000	0.318200
C401	C40	0.778300	0.941400	0.122100
C411	C41	0.853000	0.671500	0.986500
C421	C42	0.729900	0.606600	0.968600
H341	H34	0.734000	0.532000	0.989000
C431	C43	0.732500	0.056100	0.397500
N41	N4	0.532000	0.924500	0.197800
H351	H35	0.541800	0.919800	0.154300
H361	H36	0.469100	0.973100	0.207100
H371	H37	0.511600	0.857200	0.213900
C441	C44	0.724000	0.593200	0.893200
H381	H38	0.639300	0.568000	0.880600
H391	H39	0.787200	0.539100	0.879300
H401	H40	0.741700	0.664300	0.872600
