data_WODPUC_clean_PM
_symmetry_space_group_name_H-M	'P1'
_cell_length_a	10.660000
_cell_length_b	11.377000
_cell_length_c	12.509000
_cell_angle_alpha	86.240000
_cell_angle_beta	81.850000
_cell_angle_gamma	89.070000
_symmetry_Int_Tables_number 1

loop_
_symmetry_equiv_pos_as_xyz
'x,y,z'

loop_
_atom_site_label
_atom_site_type_symbol
_atom_site_fract_x
_atom_site_fract_y
_atom_site_fract_z
O11	O1	0.503000	0.322800	0.641700
O21	O2	0.307400	0.388600	0.639100
C11	C1	0.396500	0.316900	0.610600
Dy11	Dy1	0.573310	0.514080	0.238130
Zn11	Zn1	0.368110	0.164100	0.200670
C21	C2	0.620800	0.885500	0.089000
N11	N1	0.352200	0.126500	0.377000
C31	C3	0.301100	0.013500	0.545500
H11	H1	0.275600	0.942400	0.582400
C41	C4	0.327200	0.108400	0.601900
H21	H2	0.317300	0.102100	0.677100
C51	C5	0.381800	0.217900	0.432300
C61	C6	0.368700	0.214500	0.545200
C71	C7	0.168000	0.347900	0.147100
H31	H3	0.237000	0.383400	0.103800
C81	C8	0.313400	0.025100	0.433300
H41	H4	0.294300	0.961200	0.395900
C91	C9	0.084100	0.195100	0.264800
H51	H5	0.094600	0.123900	0.303500
N21	N2	0.186600	0.245000	0.204200
C101	C10	0.964300	0.244800	0.272200
H61	H6	0.896400	0.207700	0.315600
C111	C11	0.051100	0.401700	0.151000
H71	H7	0.042300	0.472500	0.111000
O31	O3	0.722700	0.358800	0.281200
N31	N3	0.539900	0.066400	0.163600
C121	C12	0.659800	0.106600	0.156100
H81	H8	0.673000	0.180600	0.179800
C131	C13	0.816700	0.407700	0.219800
C141	C14	0.381400	0.920100	0.144400
C151	C15	0.600000	0.762000	0.055300
C161	C16	0.434200	0.324200	0.361900
C171	C17	0.519800	0.957600	0.131500
C181	C18	0.743600	0.928800	0.080200
H91	H9	0.812000	0.883300	0.051700
C191	C19	0.946100	0.350500	0.214400
C201	C20	0.763900	0.040200	0.114000
H101	H10	0.845600	0.069800	0.108500
O41	O4	0.607900	0.680100	0.126000
O51	O5	0.298800	0.998400	0.174800
O61	O6	0.582600	0.748500	0.958900
O71	O7	0.801900	0.502600	0.164100
O81	O8	0.447200	0.317900	0.259100
O91	O9	0.468200	0.412800	0.404800
O101	O10	0.357700	0.817300	0.125100
O111	O11	0.497000	0.677200	0.358300
O121	O12	0.692600	0.611400	0.360900
C211	C21	0.603500	0.683100	0.389400
Dy21	Dy2	0.426690	0.485920	0.761870
Zn21	Zn2	0.631890	0.835900	0.799330
C221	C22	0.379200	0.114500	0.911000
N41	N4	0.647800	0.873500	0.623000
C231	C23	0.698900	0.986500	0.454500
H111	H11	0.724400	0.057600	0.417600
C241	C24	0.672800	0.891600	0.398100
H121	H12	0.682700	0.897900	0.322900
C251	C25	0.618200	0.782100	0.567700
C261	C26	0.631300	0.785500	0.454800
C271	C27	0.832000	0.652100	0.852900
H131	H13	0.763000	0.616600	0.896200
C281	C28	0.686600	0.974900	0.566700
H141	H14	0.705700	0.038800	0.604100
C291	C29	0.915900	0.804900	0.735200
H151	H15	0.905400	0.876100	0.696500
N51	N5	0.813400	0.755000	0.795800
C301	C30	0.035700	0.755200	0.727800
H161	H16	0.103600	0.792300	0.684400
C311	C31	0.948900	0.598300	0.849000
H171	H17	0.957700	0.527500	0.889000
O131	O13	0.277300	0.641200	0.718800
N61	N6	0.460100	0.933600	0.836400
C321	C32	0.340200	0.893400	0.843900
H181	H18	0.327000	0.819400	0.820200
C331	C33	0.183300	0.592300	0.780200
C341	C34	0.618600	0.079900	0.855600
C351	C35	0.400000	0.238000	0.944700
C361	C36	0.565800	0.675800	0.638100
C371	C37	0.480200	0.042400	0.868500
C381	C38	0.256400	0.071200	0.919800
H191	H19	0.188000	0.116700	0.948300
C391	C39	0.053900	0.649500	0.785600
C401	C40	0.236100	0.959800	0.886000
H201	H20	0.154400	0.930200	0.891500
O141	O14	0.392100	0.319900	0.874000
O151	O15	0.701200	0.001600	0.825200
O161	O16	0.417400	0.251500	0.041100
O171	O17	0.198100	0.497400	0.835900
O181	O18	0.552800	0.682100	0.740900
O191	O19	0.531800	0.587200	0.595200
O201	O20	0.642300	0.182700	0.874900
