data_WODROY_clean_PM
_symmetry_space_group_name_H-M	'P1'
_cell_length_a	7.859000
_cell_length_b	13.253000
_cell_length_c	17.452000
_cell_angle_alpha	90.000000
_cell_angle_beta	105.258000
_cell_angle_gamma	90.000000
_symmetry_Int_Tables_number 1

loop_
_symmetry_equiv_pos_as_xyz
'x,y,z'

loop_
_atom_site_label
_atom_site_type_symbol
_atom_site_fract_x
_atom_site_fract_y
_atom_site_fract_z
Cu11	Cu1	0.727440	0.603580	0.553390
O11	O1	0.830000	0.503500	0.497600
H11	H1	0.746200	0.449400	0.475700
N11	N1	0.690900	0.692400	0.455500
C11	C1	0.775300	0.426200	0.659700
Cu21	Cu2	0.951800	0.550500	0.421030
O21	O2	0.916100	0.393800	0.647700
N21	N2	0.808900	0.680400	0.409700
C21	C2	0.708400	0.367600	0.719200
O31	O3	0.690000	0.501300	0.628600
N31	N3	0.657600	0.816700	0.373200
C31	C3	0.547700	0.392400	0.734000
H21	H2	0.481200	0.445700	0.707000
O41	O4	0.006100	0.177000	0.907100
N41	N4	0.598000	0.906000	0.333600
H31	H3	0.519500	0.941800	0.347000
H41	H4	0.641500	0.925800	0.295700
C41	C4	0.487300	0.337700	0.788800
H51	H5	0.379000	0.353700	0.797800
O51	O5	0.821600	0.060700	0.839300
C51	C5	0.587000	0.258200	0.831200
O61	O6	0.627100	0.160500	0.948800
C61	C6	0.521400	0.202300	0.892400
O71	O7	0.355100	0.203900	0.883800
C71	C7	0.747500	0.234900	0.816500
C81	C8	0.867500	0.151100	0.858900
C91	C9	0.807200	0.288600	0.760400
H61	H6	0.914100	0.271600	0.750400
C101	C10	0.787600	0.757800	0.361900
H71	H7	0.852800	0.770200	0.325500
C111	C11	0.602200	0.775700	0.433100
H81	H8	0.515800	0.802200	0.454900
Cu31	Cu3	0.272560	0.103580	0.946610
O81	O8	0.170000	0.003500	0.002400
H91	H9	0.253800	0.949400	0.024300
N51	N5	0.309100	0.192400	0.044500
C121	C12	0.224700	0.926200	0.840300
Cu41	Cu4	0.048200	0.050500	0.078970
O91	O9	0.083900	0.893800	0.852300
N61	N6	0.191100	0.180400	0.090300
C131	C13	0.291600	0.867600	0.780800
O101	O10	0.310000	0.001300	0.871400
N71	N7	0.342400	0.316700	0.126800
C141	C14	0.452300	0.892400	0.766000
H101	H10	0.518800	0.945700	0.793000
O111	O11	0.993900	0.677000	0.592900
N81	N8	0.402000	0.406000	0.166400
H111	H11	0.480500	0.441800	0.153000
H121	H12	0.358500	0.425800	0.204300
C151	C15	0.512700	0.837700	0.711200
H131	H13	0.621000	0.853700	0.702200
O121	O12	0.178400	0.560700	0.660700
C161	C16	0.413000	0.758200	0.668800
O131	O13	0.372900	0.660500	0.551200
C171	C17	0.478600	0.702300	0.607600
O141	O14	0.644900	0.703900	0.616200
C181	C18	0.252500	0.734900	0.683500
C191	C19	0.132500	0.651100	0.641100
C201	C20	0.192800	0.788600	0.739600
H141	H14	0.085900	0.771600	0.749600
C211	C21	0.212400	0.257800	0.138100
H151	H15	0.147200	0.270200	0.174500
C221	C22	0.397800	0.275700	0.066900
H161	H16	0.484200	0.302200	0.045100
Cu51	Cu5	0.272560	0.396420	0.446610
O151	O15	0.170000	0.496500	0.502400
H171	H17	0.253800	0.550600	0.524300
N91	N9	0.309100	0.307600	0.544500
C231	C23	0.224700	0.573800	0.340300
Cu61	Cu6	0.048200	0.449500	0.578970
O161	O16	0.083900	0.606200	0.352300
N101	N10	0.191100	0.319600	0.590300
C241	C24	0.291600	0.632400	0.280800
O171	O17	0.310000	0.498700	0.371400
N111	N11	0.342400	0.183300	0.626800
C251	C25	0.452300	0.607600	0.266000
H181	H18	0.518800	0.554300	0.293000
O181	O18	0.993900	0.823000	0.092900
N121	N12	0.402000	0.094000	0.666400
H191	H19	0.480500	0.058200	0.653000
H201	H20	0.358500	0.074200	0.704300
C261	C26	0.512700	0.662300	0.211200
H211	H21	0.621000	0.646300	0.202200
O191	O19	0.178400	0.939300	0.160700
C271	C27	0.413000	0.741800	0.168800
O201	O20	0.372900	0.839500	0.051200
C281	C28	0.478600	0.797700	0.107600
O211	O21	0.644900	0.796100	0.116200
C291	C29	0.252500	0.765100	0.183500
C301	C30	0.132500	0.848900	0.141100
C311	C31	0.192800	0.711400	0.239600
H221	H22	0.085900	0.728400	0.249600
C321	C32	0.212400	0.242200	0.638100
H231	H23	0.147200	0.229800	0.674500
C331	C33	0.397800	0.224300	0.566900
H241	H24	0.484200	0.197800	0.545100
Cu71	Cu7	0.727440	0.896420	0.053390
O221	O22	0.830000	0.996500	0.997600
H251	H25	0.746200	0.050600	0.975700
N131	N13	0.690900	0.807600	0.955500
C341	C34	0.775300	0.073800	0.159700
Cu81	Cu8	0.951800	0.949500	0.921030
O231	O23	0.916100	0.106200	0.147700
N141	N14	0.808900	0.819600	0.909700
C351	C35	0.708400	0.132400	0.219200
O241	O24	0.690000	0.998700	0.128600
N151	N15	0.657600	0.683300	0.873200
C361	C36	0.547700	0.107600	0.234000
H261	H26	0.481200	0.054300	0.207000
O251	O25	0.006100	0.323000	0.407100
N161	N16	0.598000	0.594000	0.833600
H271	H27	0.519500	0.558200	0.847000
H281	H28	0.641500	0.574200	0.795700
C371	C37	0.487300	0.162300	0.288800
H291	H29	0.379000	0.146300	0.297800
O261	O26	0.821600	0.439300	0.339300
C381	C38	0.587000	0.241800	0.331200
O271	O27	0.627100	0.339500	0.448800
C391	C39	0.521400	0.297700	0.392400
O281	O28	0.355100	0.296100	0.383800
C401	C40	0.747500	0.265100	0.316500
C411	C41	0.867500	0.348900	0.358900
C421	C42	0.807200	0.211400	0.260400
H301	H30	0.914100	0.228400	0.250400
C431	C43	0.787600	0.742200	0.861900
H311	H31	0.852800	0.729800	0.825500
C441	C44	0.602200	0.724300	0.933100
H321	H32	0.515800	0.697800	0.954900
