data_WODVOB_clean_PM
_symmetry_space_group_name_H-M	'P1'
_cell_length_a	24.361000
_cell_length_b	15.388000
_cell_length_c	11.609000
_cell_angle_alpha	90.000000
_cell_angle_beta	118.460000
_cell_angle_gamma	90.000000
_symmetry_Int_Tables_number 1

loop_
_symmetry_equiv_pos_as_xyz
'x,y,z'

loop_
_atom_site_label
_atom_site_type_symbol
_atom_site_fract_x
_atom_site_fract_y
_atom_site_fract_z
O11	O1	0.008400	0.092900	0.666500
C11	C1	0.862600	0.275400	0.754000
H11	H1	0.842100	0.308700	0.788600
O21	O2	0.016900	0.194300	0.857500
H21	H2	0.031600	0.162500	0.822600
C21	C2	0.954100	0.204200	0.776100
C31	C3	0.827900	0.241400	0.626500
N11	N1	0.763500	0.261700	0.559100
C41	C4	0.920500	0.170900	0.650500
C51	C5	0.858200	0.188900	0.577900
H31	H3	0.835900	0.165500	0.494300
C61	C6	0.951200	0.113900	0.592000
C71	C7	0.924500	0.261600	0.827800
H41	H4	0.947200	0.288200	0.908900
O31	O3	0.919700	0.091200	0.477100
O41	O4	0.508400	0.592900	0.666500
C81	C8	0.362600	0.775400	0.754000
H51	H5	0.342100	0.808700	0.788600
O51	O5	0.516900	0.694300	0.857500
H61	H6	0.531600	0.662500	0.822600
C91	C9	0.454100	0.704200	0.776100
C101	C10	0.327900	0.741400	0.626500
N21	N2	0.263500	0.761700	0.559100
C111	C11	0.420500	0.670900	0.650500
C121	C12	0.358200	0.688900	0.577900
H71	H7	0.335900	0.665500	0.494300
C131	C13	0.451200	0.613900	0.592000
C141	C14	0.424500	0.761600	0.827800
H81	H8	0.447200	0.788200	0.908900
O61	O6	0.419700	0.591200	0.477100
O71	O7	0.991600	0.092900	0.333500
C151	C15	0.137400	0.275400	0.246000
H91	H9	0.157900	0.308700	0.211400
O81	O8	0.983100	0.194300	0.142500
H101	H10	0.968400	0.162500	0.177400
C161	C16	0.045900	0.204200	0.223900
C171	C17	0.172100	0.241400	0.373500
N31	N3	0.236500	0.261700	0.440900
C181	C18	0.079500	0.170900	0.349500
C191	C19	0.141800	0.188900	0.422100
H111	H11	0.164100	0.165500	0.505700
C201	C20	0.048800	0.113900	0.408000
C211	C21	0.075500	0.261600	0.172200
H121	H12	0.052800	0.288200	0.091100
O91	O9	0.080300	0.091200	0.522900
O101	O10	0.491600	0.592900	0.333500
C221	C22	0.637400	0.775400	0.246000
H131	H13	0.657900	0.808700	0.211400
O111	O11	0.483100	0.694300	0.142500
H141	H14	0.468400	0.662500	0.177400
C231	C23	0.545900	0.704200	0.223900
C241	C24	0.672100	0.741400	0.373500
N41	N4	0.736500	0.761700	0.440900
C251	C25	0.579500	0.670900	0.349500
C261	C26	0.641800	0.688900	0.422100
H151	H15	0.664100	0.665500	0.505700
C271	C27	0.548800	0.613900	0.408000
C281	C28	0.575500	0.761600	0.172200
H161	H16	0.552800	0.788200	0.091100
O121	O12	0.580300	0.591200	0.522900
O131	O13	0.991600	0.907100	0.333500
C291	C29	0.137400	0.724600	0.246000
H171	H17	0.157900	0.691300	0.211400
O141	O14	0.983100	0.805700	0.142500
H181	H18	0.968400	0.837500	0.177400
C301	C30	0.045900	0.795800	0.223900
C311	C31	0.172100	0.758600	0.373500
N51	N5	0.236500	0.738300	0.440900
C321	C32	0.079500	0.829100	0.349500
C331	C33	0.141800	0.811100	0.422100
H191	H19	0.164100	0.834500	0.505700
C341	C34	0.048800	0.886100	0.408000
C351	C35	0.075500	0.738400	0.172200
H201	H20	0.052800	0.711800	0.091100
O151	O15	0.080300	0.908800	0.522900
O161	O16	0.491600	0.407100	0.333500
C361	C36	0.637400	0.224600	0.246000
H211	H21	0.657900	0.191300	0.211400
O171	O17	0.483100	0.305700	0.142500
H221	H22	0.468400	0.337500	0.177400
C371	C37	0.545900	0.295800	0.223900
C381	C38	0.672100	0.258600	0.373500
N61	N6	0.736500	0.238300	0.440900
C391	C39	0.579500	0.329100	0.349500
C401	C40	0.641800	0.311100	0.422100
H231	H23	0.664100	0.334500	0.505700
C411	C41	0.548800	0.386100	0.408000
C421	C42	0.575500	0.238400	0.172200
H241	H24	0.552800	0.211800	0.091100
O181	O18	0.580300	0.408800	0.522900
O191	O19	0.008400	0.907100	0.666500
C431	C43	0.862600	0.724600	0.754000
H251	H25	0.842100	0.691300	0.788600
O201	O20	0.016900	0.805700	0.857500
H261	H26	0.031600	0.837500	0.822600
C441	C44	0.954100	0.795800	0.776100
C451	C45	0.827900	0.758600	0.626500
N71	N7	0.763500	0.738300	0.559100
C461	C46	0.920500	0.829100	0.650500
C471	C47	0.858200	0.811100	0.577900
H271	H27	0.835900	0.834500	0.494300
C481	C48	0.951200	0.886100	0.592000
C491	C49	0.924500	0.738400	0.827800
H281	H28	0.947200	0.711800	0.908900
O211	O21	0.919700	0.908800	0.477100
O221	O22	0.508400	0.407100	0.666500
C501	C50	0.362600	0.224600	0.754000
H291	H29	0.342100	0.191300	0.788600
O231	O23	0.516900	0.305700	0.857500
H301	H30	0.531600	0.337500	0.822600
C511	C51	0.454100	0.295800	0.776100
C521	C52	0.327900	0.258600	0.626500
N81	N8	0.263500	0.238300	0.559100
C531	C53	0.420500	0.329100	0.650500
C541	C54	0.358200	0.311100	0.577900
H311	H31	0.335900	0.334500	0.494300
C551	C55	0.451200	0.386100	0.592000
C561	C56	0.424500	0.238400	0.827800
H321	H32	0.447200	0.211800	0.908900
O241	O24	0.419700	0.408800	0.477100
Cd11	Cd1	0.091990	0.000000	0.696550
O251	O25	0.196100	0.000000	0.729100
N91	N9	0.475600	0.000000	0.009900
C571	C57	0.297000	0.000000	0.683700
O261	O26	0.260500	0.000000	0.947200
C581	C58	0.348100	0.000000	0.658000
H331	H33	0.342200	0.000000	0.572600
C591	C59	0.416900	0.000000	0.892000
C601	C60	0.407000	0.000000	0.763700
H341	H34	0.441400	0.000000	0.749100
C611	C61	0.252000	0.000000	0.836900
C621	C62	0.366500	0.000000	0.914900
H351	H35	0.372700	0.000000	0.000400
C631	C63	0.305300	0.000000	0.809100
O271	O27	0.238000	0.000000	0.577400
H361	H36	0.211900	0.000000	0.603000
Cd21	Cd2	0.591990	0.500000	0.696550
O281	O28	0.696100	0.500000	0.729100
N101	N10	0.975600	0.500000	0.009900
C641	C64	0.797000	0.500000	0.683700
O291	O29	0.760500	0.500000	0.947200
C651	C65	0.848100	0.500000	0.658000
H371	H37	0.842200	0.500000	0.572600
C661	C66	0.916900	0.500000	0.892000
C671	C67	0.907000	0.500000	0.763700
H381	H38	0.941400	0.500000	0.749100
C681	C68	0.752000	0.500000	0.836900
C691	C69	0.866500	0.500000	0.914900
H391	H39	0.872700	0.500000	0.000400
C701	C70	0.805300	0.500000	0.809100
O301	O30	0.738000	0.500000	0.577400
H401	H40	0.711900	0.500000	0.603000
Cd31	Cd3	0.908010	0.000000	0.303450
O311	O31	0.803900	0.000000	0.270900
N111	N11	0.524400	0.000000	0.990100
C711	C71	0.703000	0.000000	0.316300
O321	O32	0.739500	0.000000	0.052800
C721	C72	0.651900	0.000000	0.342000
H411	H41	0.657800	0.000000	0.427400
C731	C73	0.583100	0.000000	0.108000
C741	C74	0.593000	0.000000	0.236300
H421	H42	0.558600	0.000000	0.250900
C751	C75	0.748000	0.000000	0.163100
C761	C76	0.633500	0.000000	0.085100
H431	H43	0.627300	0.000000	0.999600
C771	C77	0.694700	0.000000	0.190900
O331	O33	0.762000	0.000000	0.422600
H441	H44	0.788100	0.000000	0.397000
Cd41	Cd4	0.408010	0.500000	0.303450
O341	O34	0.303900	0.500000	0.270900
N121	N12	0.024400	0.500000	0.990100
C781	C78	0.203000	0.500000	0.316300
O351	O35	0.239500	0.500000	0.052800
C791	C79	0.151900	0.500000	0.342000
H451	H45	0.157800	0.500000	0.427400
C801	C80	0.083100	0.500000	0.108000
C811	C81	0.093000	0.500000	0.236300
H461	H46	0.058600	0.500000	0.250900
C821	C82	0.248000	0.500000	0.163100
C831	C83	0.133500	0.500000	0.085100
H471	H47	0.127300	0.500000	0.999600
C841	C84	0.194700	0.500000	0.190900
O361	O36	0.262000	0.500000	0.422600
H481	H48	0.288100	0.500000	0.397000
