data_WODWUJ_clean_PM
_symmetry_space_group_name_H-M	'P1'
_cell_length_a	10.602000
_cell_length_b	11.330000
_cell_length_c	12.446000
_cell_angle_alpha	86.270000
_cell_angle_beta	82.020000
_cell_angle_gamma	89.220000
_symmetry_Int_Tables_number 1

loop_
_symmetry_equiv_pos_as_xyz
'x,y,z'

loop_
_atom_site_label
_atom_site_type_symbol
_atom_site_fract_x
_atom_site_fract_y
_atom_site_fract_z
Gd11	Gd1	0.427480	0.985980	0.261440
Zn11	Zn1	0.631840	0.337700	0.298090
O11	O1	0.534200	0.088800	0.093700
O21	O2	0.553000	0.183900	0.240000
O31	O3	0.197300	0.998800	0.335400
O41	O4	0.275900	0.142000	0.217500
O51	O5	0.417400	0.749100	0.542700
O61	O6	0.700500	0.502600	0.324900
O71	O7	0.694000	0.113400	0.861200
O81	O8	0.392000	0.820200	0.376900
O91	O9	0.498000	0.178900	0.858400
O101	O10	0.641600	0.682500	0.376600
N11	N1	0.459700	0.434600	0.335400
N21	N2	0.813000	0.257000	0.294500
N31	N3	0.647700	0.375400	0.122700
C11	C1	0.478900	0.542900	0.368200
C21	C2	0.566300	0.177700	0.137000
C31	C3	0.399900	0.737000	0.446400
C41	C4	0.618600	0.580400	0.356100
C51	C5	0.378900	0.614700	0.411400
C61	C6	0.618700	0.283800	0.067400
C71	C7	0.182500	0.093400	0.279300
C81	C8	0.340000	0.394400	0.342900
H11	H1	0.326400	0.320000	0.319300
C91	C9	0.604600	0.184900	0.889500
C101	C10	0.256000	0.571100	0.419100
H21	H2	0.187000	0.616500	0.447500
C111	C11	0.053300	0.150500	0.284200
C121	C12	0.236500	0.460700	0.384900
H31	H3	0.154500	0.430900	0.390000
C131	C13	0.632400	0.287500	0.954400
C141	C14	0.035100	0.256800	0.226400
H41	H4	0.103100	0.294300	0.182700
C151	C15	0.948600	0.100200	0.348200
H51	H5	0.957200	0.029900	0.389500
C161	C16	0.831200	0.154300	0.350800
H61	H6	0.761500	0.118200	0.393300
C171	C17	0.915100	0.306100	0.234500
H71	H7	0.904600	0.377800	0.195900
C181	C18	0.686400	0.476300	0.066700
H81	H8	0.705200	0.540500	0.104500
C191	C19	0.673700	0.392100	0.898700
H91	H9	0.684400	0.397900	0.823100
C201	C20	0.699300	0.488200	0.954500
H101	H10	0.724700	0.559700	0.917400
Gd21	Gd2	0.572520	0.014020	0.738560
Zn21	Zn2	0.368160	0.662300	0.701910
O111	O11	0.465800	0.911200	0.906300
O121	O12	0.447000	0.816100	0.760000
O131	O13	0.802700	0.001200	0.664600
O141	O14	0.724100	0.858000	0.782500
O151	O15	0.582600	0.250900	0.457300
O161	O16	0.299500	0.497400	0.675100
O171	O17	0.306000	0.886600	0.138800
O181	O18	0.608000	0.179800	0.623100
O191	O19	0.502000	0.821100	0.141600
O201	O20	0.358400	0.317500	0.623400
N41	N4	0.540300	0.565400	0.664600
N51	N5	0.187000	0.743000	0.705500
N61	N6	0.352300	0.624600	0.877300
C211	C21	0.521100	0.457100	0.631800
C221	C22	0.433700	0.822300	0.863000
C231	C23	0.600100	0.263000	0.553600
C241	C24	0.381400	0.419600	0.643900
C251	C25	0.621100	0.385300	0.588600
C261	C26	0.381300	0.716200	0.932600
C271	C27	0.817500	0.906600	0.720700
C281	C28	0.660000	0.605600	0.657100
H111	H11	0.673600	0.680000	0.680700
C291	C29	0.395400	0.815100	0.110500
C301	C30	0.744000	0.428900	0.580900
H121	H12	0.813000	0.383500	0.552500
C311	C31	0.946700	0.849500	0.715800
C321	C32	0.763500	0.539300	0.615100
H131	H13	0.845500	0.569100	0.610000
C331	C33	0.367600	0.712500	0.045600
C341	C34	0.964900	0.743200	0.773600
H141	H14	0.896900	0.705700	0.817300
C351	C35	0.051400	0.899800	0.651800
H151	H15	0.042800	0.970100	0.610500
C361	C36	0.168800	0.845700	0.649200
H161	H16	0.238500	0.881800	0.606700
C371	C37	0.084900	0.693900	0.765500
H171	H17	0.095400	0.622200	0.804100
C381	C38	0.313600	0.523700	0.933300
H181	H18	0.294800	0.459500	0.895500
C391	C39	0.326300	0.607900	0.101300
H191	H19	0.315600	0.602100	0.176900
C401	C40	0.300700	0.511800	0.045500
H201	H20	0.275300	0.440300	0.082600
