data_WODXEU_clean_PM
_symmetry_space_group_name_H-M	'P1'
_cell_length_a	10.458000
_cell_length_b	12.274000
_cell_length_c	12.401000
_cell_angle_alpha	86.140000
_cell_angle_beta	79.870000
_cell_angle_gamma	76.580000
_symmetry_Int_Tables_number 1

loop_
_symmetry_equiv_pos_as_xyz
'x,y,z'

loop_
_atom_site_label
_atom_site_type_symbol
_atom_site_fract_x
_atom_site_fract_y
_atom_site_fract_z
O11	O1	0.134500	0.901200	0.975600
La11	La1	0.957360	0.125310	0.829070
Zn11	Zn1	0.186440	0.350290	0.190240
O21	O2	0.186400	0.260800	0.046800
N11	N1	0.171800	0.394000	0.358700
C11	C1	0.011700	0.449900	0.872700
O31	O3	0.039800	0.157900	0.448000
O41	O4	0.946800	0.280800	0.676000
N21	N2	0.609200	0.725700	0.826800
O51	O5	0.147700	0.175800	0.666900
C21	C2	0.127900	0.381900	0.900500
C31	C3	0.877400	0.417400	0.887600
C41	C4	0.144000	0.267500	0.958500
C51	C5	0.127000	0.321300	0.434000
C61	C6	0.089900	0.225300	0.385100
C71	C7	0.386200	0.745200	0.922500
H11	H1	0.326600	0.718900	0.977000
C81	C8	0.207300	0.481400	0.392900
H21	H2	0.236800	0.532300	0.340900
N31	N3	0.007100	0.554600	0.831700
C91	C9	0.343300	0.840000	0.860600
C101	C10	0.241900	0.424900	0.879500
H31	H3	0.322000	0.381700	0.896100
C111	C11	0.117200	0.594800	0.813200
H41	H4	0.112600	0.667600	0.785400
C121	C12	0.117000	0.334400	0.545500
C131	C13	0.200900	0.905800	0.882000
C141	C14	0.518600	0.690100	0.902700
H51	H5	0.546200	0.625300	0.943800
C151	C15	0.237300	0.531200	0.834100
H61	H6	0.314000	0.559200	0.818000
C161	C16	0.158400	0.424500	0.578700
H71	H7	0.156500	0.434100	0.652800
C171	C17	0.202200	0.499600	0.501700
H81	H8	0.227800	0.561500	0.523000
C181	C18	0.066400	0.256900	0.634100
C191	C19	0.435000	0.874900	0.780300
H91	H9	0.408600	0.937000	0.735500
C201	C20	0.565400	0.817600	0.766900
H101	H10	0.626600	0.843500	0.713600
O61	O6	0.778500	0.494700	0.872800
O71	O7	0.112200	0.220900	0.282400
O81	O8	0.126200	0.184800	0.914300
O91	O9	0.157900	0.964500	0.803200
O101	O10	0.872100	0.319100	0.912700
O111	O11	0.865500	0.098800	0.024400
La21	La2	0.042640	0.874690	0.170930
Zn21	Zn2	0.813560	0.649710	0.809760
O121	O12	0.813600	0.739200	0.953200
N41	N4	0.828200	0.606000	0.641300
C211	C21	0.988300	0.550100	0.127300
O131	O13	0.960200	0.842100	0.552000
O141	O14	0.053200	0.719200	0.324000
N51	N5	0.390800	0.274300	0.173200
O151	O15	0.852300	0.824200	0.333100
C221	C22	0.872100	0.618100	0.099500
C231	C23	0.122600	0.582600	0.112400
C241	C24	0.856000	0.732500	0.041500
C251	C25	0.873000	0.678700	0.566000
C261	C26	0.910100	0.774700	0.614900
C271	C27	0.613800	0.254800	0.077500
H111	H11	0.673400	0.281100	0.023000
C281	C28	0.792700	0.518600	0.607100
H121	H12	0.763200	0.467700	0.659100
N61	N6	0.992900	0.445400	0.168300
C291	C29	0.656700	0.160000	0.139400
C301	C30	0.758100	0.575100	0.120500
H131	H13	0.678000	0.618300	0.103900
C311	C31	0.882800	0.405200	0.186800
H141	H14	0.887400	0.332400	0.214600
C321	C32	0.883000	0.665600	0.454500
C331	C33	0.799100	0.094200	0.118000
C341	C34	0.481400	0.309900	0.097300
H151	H15	0.453800	0.374700	0.056200
C351	C35	0.762700	0.468800	0.165900
H161	H16	0.686000	0.440800	0.182000
C361	C36	0.841600	0.575500	0.421300
H171	H17	0.843500	0.565900	0.347200
C371	C37	0.797800	0.500400	0.498300
H181	H18	0.772200	0.438500	0.477000
C381	C38	0.933600	0.743100	0.365900
C391	C39	0.565000	0.125100	0.219700
H191	H19	0.591400	0.063000	0.264500
C401	C40	0.434600	0.182400	0.233100
H201	H20	0.373400	0.156500	0.286400
O161	O16	0.221500	0.505300	0.127200
O171	O17	0.887800	0.779100	0.717600
O181	O18	0.873800	0.815200	0.085700
O191	O19	0.842100	0.035500	0.196800
O201	O20	0.127900	0.680900	0.087300
