data_WOFVIX_clean_PM
_symmetry_space_group_name_H-M	'P1'
_cell_length_a	14.480200
_cell_length_b	14.480200
_cell_length_c	8.788400
_cell_angle_alpha	90.000000
_cell_angle_beta	90.000000
_cell_angle_gamma	120.000000
_symmetry_Int_Tables_number 1

loop_
_symmetry_equiv_pos_as_xyz
'x,y,z'

loop_
_atom_site_label
_atom_site_type_symbol
_atom_site_fract_x
_atom_site_fract_y
_atom_site_fract_z
Ag11	Ag1	0.895940	0.599220	0.100930
C11	C1	0.911000	0.530600	0.783900
C21	C2	0.956900	0.515200	0.636100
C31	C3	0.992300	0.593200	0.522000
C41	C4	0.982500	0.686300	0.535200
H11	H1	0.955300	0.697600	0.624600
C51	C5	0.011600	0.757900	0.421900
H21	H2	0.002900	0.816900	0.433200
C61	C6	0.055700	0.744200	0.284600
H31	H3	0.076200	0.794600	0.207300
C71	C7	0.067900	0.656900	0.266100
H41	H4	0.097400	0.649000	0.176400
C81	C8	0.964100	0.422300	0.617000
C91	C9	0.564600	0.318700	0.360700
H51	H5	0.506400	0.251600	0.397900
H61	H6	0.553900	0.375600	0.398200
C101	C10	0.652600	0.421300	0.138100
H71	H7	0.652500	0.422400	0.027700
H81	H8	0.643000	0.479300	0.174000
N11	N1	0.562800	0.318600	0.192300
O11	O1	0.813300	0.474800	0.809000
O21	O2	0.976600	0.600800	0.873300
Ag21	Ag2	0.400780	0.296720	0.100930
C111	C11	0.469400	0.380400	0.783900
C121	C12	0.484800	0.441700	0.636100
C131	C13	0.406800	0.399100	0.522000
C141	C14	0.313700	0.296200	0.535200
H91	H9	0.302400	0.257700	0.624600
C151	C15	0.242100	0.253700	0.421900
H101	H10	0.183100	0.186000	0.433200
C161	C16	0.255800	0.311500	0.284600
H111	H11	0.205400	0.281600	0.207300
C171	C17	0.343100	0.411000	0.266100
H121	H12	0.351000	0.448400	0.176400
C181	C18	0.577700	0.541800	0.617000
C191	C19	0.681300	0.245900	0.360700
H131	H13	0.748400	0.254800	0.397900
H141	H14	0.624400	0.178300	0.398200
C201	C20	0.578700	0.231300	0.138100
H151	H15	0.577600	0.230100	0.027700
H161	H16	0.520700	0.163700	0.174000
N21	N2	0.681400	0.244200	0.192300
O31	O3	0.525200	0.338500	0.809000
O41	O4	0.399200	0.375800	0.873300
Ag31	Ag3	0.703280	0.104060	0.100930
C211	C21	0.619600	0.089000	0.783900
C221	C22	0.558300	0.043100	0.636100
C231	C23	0.600900	0.007700	0.522000
C241	C24	0.703800	0.017500	0.535200
H171	H17	0.742300	0.044700	0.624600
C251	C25	0.746300	0.988400	0.421900
H181	H18	0.814000	0.997100	0.433200
C261	C26	0.688500	0.944300	0.284600
H191	H19	0.718400	0.923800	0.207300
C271	C27	0.589000	0.932100	0.266100
H201	H20	0.551600	0.902600	0.176400
C281	C28	0.458200	0.035900	0.617000
C291	C29	0.754100	0.435400	0.360700
H211	H21	0.745200	0.493600	0.397900
H221	H22	0.821700	0.446100	0.398200
C301	C30	0.768700	0.347400	0.138100
H231	H23	0.769900	0.347500	0.027700
H241	H24	0.836300	0.357000	0.174000
N31	N3	0.755800	0.437200	0.192300
O51	O5	0.661500	0.186700	0.809000
O61	O6	0.624200	0.023400	0.873300
Ag41	Ag4	0.104060	0.400780	0.899070
C311	C31	0.089000	0.469400	0.216100
C321	C32	0.043100	0.484800	0.363900
C331	C33	0.007700	0.406800	0.478000
C341	C34	0.017500	0.313700	0.464800
H251	H25	0.044700	0.302400	0.375400
C351	C35	0.988400	0.242100	0.578100
H261	H26	0.997100	0.183100	0.566800
C361	C36	0.944300	0.255800	0.715400
H271	H27	0.923800	0.205400	0.792700
C371	C37	0.932100	0.343100	0.733900
H281	H28	0.902600	0.351000	0.823600
C381	C38	0.035900	0.577700	0.383000
C391	C39	0.435400	0.681300	0.639300
H291	H29	0.493600	0.748400	0.602100
H301	H30	0.446100	0.624400	0.601800
C401	C40	0.347400	0.578700	0.861900
H311	H31	0.347500	0.577600	0.972300
H321	H32	0.357000	0.520700	0.826000
N41	N4	0.437200	0.681400	0.807700
O71	O7	0.186700	0.525200	0.191000
O81	O8	0.023400	0.399200	0.126700
Ag51	Ag5	0.599220	0.703280	0.899070
C411	C41	0.530600	0.619600	0.216100
C421	C42	0.515200	0.558300	0.363900
C431	C43	0.593200	0.600900	0.478000
C441	C44	0.686300	0.703800	0.464800
H331	H33	0.697600	0.742300	0.375400
C451	C45	0.757900	0.746300	0.578100
H341	H34	0.816900	0.814000	0.566800
C461	C46	0.744200	0.688500	0.715400
H351	H35	0.794600	0.718400	0.792700
C471	C47	0.656900	0.589000	0.733900
H361	H36	0.649000	0.551600	0.823600
C481	C48	0.422300	0.458200	0.383000
C491	C49	0.318700	0.754100	0.639300
H371	H37	0.251600	0.745200	0.602100
H381	H38	0.375600	0.821700	0.601800
C501	C50	0.421300	0.768700	0.861900
H391	H39	0.422400	0.769900	0.972300
H401	H40	0.479300	0.836300	0.826000
N51	N5	0.318600	0.755800	0.807700
O91	O9	0.474800	0.661500	0.191000
O101	O10	0.600800	0.624200	0.126700
Ag61	Ag6	0.296720	0.895940	0.899070
C511	C51	0.380400	0.911000	0.216100
C521	C52	0.441700	0.956900	0.363900
C531	C53	0.399100	0.992300	0.478000
C541	C54	0.296200	0.982500	0.464800
H411	H41	0.257700	0.955300	0.375400
C551	C55	0.253700	0.011600	0.578100
H421	H42	0.186000	0.002900	0.566800
C561	C56	0.311500	0.055700	0.715400
H431	H43	0.281600	0.076200	0.792700
C571	C57	0.411000	0.067900	0.733900
H441	H44	0.448400	0.097400	0.823600
C581	C58	0.541800	0.964100	0.383000
C591	C59	0.245900	0.564600	0.639300
H451	H45	0.254800	0.506400	0.602100
H461	H46	0.178300	0.553900	0.601800
C601	C60	0.231300	0.652600	0.861900
H471	H47	0.230100	0.652500	0.972300
H481	H48	0.163700	0.643000	0.826000
N61	N6	0.244200	0.562800	0.807700
O111	O11	0.338500	0.813300	0.191000
O121	O12	0.375800	0.976600	0.126700
Ag71	Ag7	0.666670	0.333330	0.681410
N71	N7	0.666670	0.333330	0.420600
Ag81	Ag8	0.333330	0.666670	0.318590
N81	N8	0.333330	0.666670	0.579400
