data_WOFWET_clean_PM
_symmetry_space_group_name_H-M	'P1'
_cell_length_a	15.278000
_cell_length_b	7.664000
_cell_length_c	15.553000
_cell_angle_alpha	90.000000
_cell_angle_beta	105.410000
_cell_angle_gamma	90.000000
_symmetry_Int_Tables_number 1

loop_
_symmetry_equiv_pos_as_xyz
'x,y,z'

loop_
_atom_site_label
_atom_site_type_symbol
_atom_site_fract_x
_atom_site_fract_y
_atom_site_fract_z
Cd11	Cd1	0.319420	0.565990	0.155340
C11	C1	0.263800	0.704000	0.029100
C21	C2	0.463100	0.606300	0.227600
N11	N1	0.292200	0.814800	0.234300
C31	C3	0.246600	0.392000	0.227700
C41	C4	0.207800	0.314800	0.265700
N21	N2	0.236200	0.796000	0.970900
Cd21	Cd2	0.819420	0.065990	0.155340
C51	C5	0.763800	0.204000	0.029100
C61	C6	0.963100	0.106300	0.227600
N31	N3	0.792200	0.314800	0.234300
C71	C7	0.746600	0.892000	0.227700
C81	C8	0.707800	0.814800	0.265700
N41	N4	0.736200	0.296000	0.970900
Cd31	Cd3	0.680580	0.565990	0.344660
C91	C9	0.736200	0.704000	0.470900
C101	C10	0.536900	0.606300	0.272400
C111	C11	0.753400	0.392000	0.272300
N51	N5	0.763800	0.796000	0.529100
Cd41	Cd4	0.180580	0.065990	0.344660
C121	C12	0.236200	0.204000	0.470900
C131	C13	0.036900	0.106300	0.272400
C141	C14	0.253400	0.892000	0.272300
N61	N6	0.263800	0.296000	0.529100
Cd51	Cd5	0.680580	0.434010	0.844660
C151	C15	0.536900	0.393700	0.772400
N71	N7	0.707800	0.185200	0.765700
C161	C16	0.753400	0.608000	0.772300
C171	C17	0.792200	0.685200	0.734300
Cd61	Cd6	0.180580	0.934010	0.844660
C181	C18	0.036900	0.893700	0.772400
N81	N8	0.207800	0.685200	0.765700
C191	C19	0.253400	0.108000	0.772300
C201	C20	0.292200	0.185200	0.734300
Cd71	Cd7	0.319420	0.434010	0.655340
C211	C21	0.463100	0.393700	0.727600
C221	C22	0.246600	0.608000	0.727700
Cd81	Cd8	0.819420	0.934010	0.655340
C231	C23	0.963100	0.893700	0.727600
C241	C24	0.746600	0.108000	0.727700
