data_WOGHUV01_clean_PM
_symmetry_space_group_name_H-M	'P1'
_cell_length_a	16.104800
_cell_length_b	8.256400
_cell_length_c	22.997900
_cell_angle_alpha	90.000000
_cell_angle_beta	103.995000
_cell_angle_gamma	90.000000
_symmetry_Int_Tables_number 1

loop_
_symmetry_equiv_pos_as_xyz
'x,y,z'

loop_
_atom_site_label
_atom_site_type_symbol
_atom_site_fract_x
_atom_site_fract_y
_atom_site_fract_z
Zn11	Zn1	0.301500	0.155200	0.426200
Zn21	Zn2	0.648900	0.349800	0.427300
Zn31	Zn3	0.264000	0.382400	0.304500
P11	P1	0.680900	0.510700	0.310700
P21	P2	0.232000	0.490400	0.455900
P31	P3	0.448300	0.289100	0.367000
O11	O1	0.243900	0.361200	0.410300
O21	O2	0.171100	0.423500	0.492500
O31	O3	0.409900	0.158500	0.401500
O41	O4	0.713500	0.494300	0.381000
O51	O5	0.474800	0.203000	0.315100
O61	O6	0.585100	0.484000	0.294700
O71	O7	0.189200	0.634100	0.418000
O81	O8	0.525500	0.371500	0.409900
O91	O9	0.317900	0.536000	0.496800
O101	O10	0.381400	0.421200	0.343800
O111	O11	0.705600	0.677500	0.292800
O121	O12	0.727400	0.379200	0.282800
Zn41	Zn4	0.801500	0.655200	0.426200
Zn51	Zn5	0.148900	0.849800	0.427300
Zn61	Zn6	0.764000	0.882400	0.304500
P41	P4	0.180900	0.010700	0.310700
P51	P5	0.732000	0.990400	0.455900
P61	P6	0.948300	0.789100	0.367000
O131	O13	0.743900	0.861200	0.410300
O141	O14	0.671100	0.923500	0.492500
O151	O15	0.909900	0.658500	0.401500
O161	O16	0.213500	0.994300	0.381000
O171	O17	0.974800	0.703000	0.315100
O181	O18	0.085100	0.984000	0.294700
O191	O19	0.689200	0.134100	0.418000
O201	O20	0.025500	0.871500	0.409900
O211	O21	0.817900	0.036000	0.496800
O221	O22	0.881400	0.921200	0.343800
O231	O23	0.205600	0.177500	0.292800
O241	O24	0.227400	0.879200	0.282800
Zn71	Zn7	0.698500	0.155200	0.073800
Zn81	Zn8	0.351100	0.349800	0.072700
Zn91	Zn9	0.736000	0.382400	0.195500
P71	P7	0.319100	0.510700	0.189300
P81	P8	0.768000	0.490400	0.044100
P91	P9	0.551700	0.289100	0.133000
O251	O25	0.756100	0.361200	0.089700
O261	O26	0.828900	0.423500	0.007500
O271	O27	0.590100	0.158500	0.098500
O281	O28	0.286500	0.494300	0.119000
O291	O29	0.525200	0.203000	0.184900
O301	O30	0.414900	0.484000	0.205300
O311	O31	0.810800	0.634100	0.082000
O321	O32	0.474500	0.371500	0.090100
O331	O33	0.682100	0.536000	0.003200
O341	O34	0.618600	0.421200	0.156200
O351	O35	0.294400	0.677500	0.207200
O361	O36	0.272600	0.379200	0.217200
Zn101	Zn10	0.198500	0.655200	0.073800
Zn111	Zn11	0.851100	0.849800	0.072700
Zn121	Zn12	0.236000	0.882400	0.195500
P101	P10	0.819100	0.010700	0.189300
P111	P11	0.268000	0.990400	0.044100
P121	P12	0.051700	0.789100	0.133000
O371	O37	0.256100	0.861200	0.089700
O381	O38	0.328900	0.923500	0.007500
O391	O39	0.090100	0.658500	0.098500
O401	O40	0.786500	0.994300	0.119000
O411	O41	0.025200	0.703000	0.184900
O421	O42	0.914900	0.984000	0.205300
O431	O43	0.310800	0.134100	0.082000
O441	O44	0.974500	0.871500	0.090100
O451	O45	0.182100	0.036000	0.003200
O461	O46	0.118600	0.921200	0.156200
O471	O47	0.794400	0.177500	0.207200
O481	O48	0.772600	0.879200	0.217200
Zn131	Zn13	0.698500	0.844800	0.573800
Zn141	Zn14	0.351100	0.650200	0.572700
Zn151	Zn15	0.736000	0.617600	0.695500
P131	P13	0.319100	0.489300	0.689300
P141	P14	0.768000	0.509600	0.544100
P151	P15	0.551700	0.710900	0.633000
O491	O49	0.756100	0.638800	0.589700
O501	O50	0.828900	0.576500	0.507500
O511	O51	0.590100	0.841500	0.598500
O521	O52	0.286500	0.505700	0.619000
O531	O53	0.525200	0.797000	0.684900
O541	O54	0.414900	0.516000	0.705300
O551	O55	0.810800	0.365900	0.582000
O561	O56	0.474500	0.628500	0.590100
O571	O57	0.682100	0.464000	0.503200
O581	O58	0.618600	0.578800	0.656200
O591	O59	0.294400	0.322500	0.707200
O601	O60	0.272600	0.620800	0.717200
Zn161	Zn16	0.198500	0.344800	0.573800
Zn171	Zn17	0.851100	0.150200	0.572700
Zn181	Zn18	0.236000	0.117600	0.695500
P161	P16	0.819100	0.989300	0.689300
P171	P17	0.268000	0.009600	0.544100
P181	P18	0.051700	0.210900	0.633000
O611	O61	0.256100	0.138800	0.589700
O621	O62	0.328900	0.076500	0.507500
O631	O63	0.090100	0.341500	0.598500
O641	O64	0.786500	0.005700	0.619000
O651	O65	0.025200	0.297000	0.684900
O661	O66	0.914900	0.016000	0.705300
O671	O67	0.310800	0.865900	0.582000
O681	O68	0.974500	0.128500	0.590100
O691	O69	0.182100	0.964000	0.503200
O701	O70	0.118600	0.078800	0.656200
O711	O71	0.794400	0.822500	0.707200
O721	O72	0.772600	0.120800	0.717200
Zn191	Zn19	0.301500	0.844800	0.926200
Zn201	Zn20	0.648900	0.650200	0.927300
Zn211	Zn21	0.264000	0.617600	0.804500
P191	P19	0.680900	0.489300	0.810700
P201	P20	0.232000	0.509600	0.955900
P211	P21	0.448300	0.710900	0.867000
O731	O73	0.243900	0.638800	0.910300
O741	O74	0.171100	0.576500	0.992500
O751	O75	0.409900	0.841500	0.901500
O761	O76	0.713500	0.505700	0.881000
O771	O77	0.474800	0.797000	0.815100
O781	O78	0.585100	0.516000	0.794700
O791	O79	0.189200	0.365900	0.918000
O801	O80	0.525500	0.628500	0.909900
O811	O81	0.317900	0.464000	0.996800
O821	O82	0.381400	0.578800	0.843800
O831	O83	0.705600	0.322500	0.792800
O841	O84	0.727400	0.620800	0.782800
Zn221	Zn22	0.801500	0.344800	0.926200
Zn231	Zn23	0.148900	0.150200	0.927300
Zn241	Zn24	0.764000	0.117600	0.804500
P221	P22	0.180900	0.989300	0.810700
P231	P23	0.732000	0.009600	0.955900
P241	P24	0.948300	0.210900	0.867000
O851	O85	0.743900	0.138800	0.910300
O861	O86	0.671100	0.076500	0.992500
O871	O87	0.909900	0.341500	0.901500
O881	O88	0.213500	0.005700	0.881000
O891	O89	0.974800	0.297000	0.815100
O901	O90	0.085100	0.016000	0.794700
O911	O91	0.689200	0.865900	0.918000
O921	O92	0.025500	0.128500	0.909900
O931	O93	0.817900	0.964000	0.996800
O941	O94	0.881400	0.078800	0.843800
O951	O95	0.205600	0.822500	0.792800
O961	O96	0.227400	0.120800	0.782800
Zn251	Zn25	0.500000	0.330000	0.250000
Zn261	Zn26	0.000000	0.830000	0.250000
Zn271	Zn27	0.500000	0.670000	0.750000
Zn281	Zn28	0.000000	0.170000	0.750000
