data_WOGHOP_clean_PM
_symmetry_space_group_name_H-M	'P1'
_cell_length_a	10.829400
_cell_length_b	12.746500
_cell_length_c	12.397100
_cell_angle_alpha	90.000000
_cell_angle_beta	95.115000
_cell_angle_gamma	90.000000
_symmetry_Int_Tables_number 1

loop_
_symmetry_equiv_pos_as_xyz
'x,y,z'

loop_
_atom_site_label
_atom_site_type_symbol
_atom_site_fract_x
_atom_site_fract_y
_atom_site_fract_z
Fe11	Fe1	0.029770	0.879000	0.659180
Fe21	Fe2	0.509460	0.875120	0.852210
P11	P1	0.565570	0.876580	0.118580
P21	P2	0.429270	0.627370	0.892280
P31	P3	0.748030	0.839850	0.696910
O11	O1	0.480600	0.613600	0.008700
O21	O2	0.875800	0.888000	0.730500
O31	O3	0.451700	0.531600	0.823600
O41	O4	0.505900	0.777900	0.160700
O51	O5	0.213700	0.866300	0.622400
O61	O6	0.128400	0.868200	0.814300
O71	O7	0.663100	0.866000	0.782800
O81	O8	0.585300	0.869300	0.999800
O91	O9	0.482800	0.722300	0.840300
O101	O10	0.489500	0.970400	0.148500
O111	O11	0.322400	0.879700	0.894000
O121	O12	0.407500	0.882100	0.698400
O131	O13	0.702200	0.884900	0.175700
H11	H1	0.699500	0.889200	0.241400
O141	O14	0.284200	0.640100	0.894900
H21	H2	0.252000	0.647900	0.833000
O151	O15	0.766900	0.715100	0.702800
H31	H3	0.817600	0.697400	0.661000
O161	O16	0.701900	0.871600	0.584400
C11	C1	0.294000	0.874000	0.701900
C21	C2	0.244400	0.873400	0.813900
Fe31	Fe3	0.470230	0.379000	0.840820
Fe41	Fe4	0.990540	0.375120	0.647790
P41	P4	0.934430	0.376580	0.381420
P51	P5	0.070730	0.127370	0.607720
P61	P6	0.751970	0.339850	0.803090
O171	O17	0.019400	0.113600	0.491300
O181	O18	0.624200	0.388000	0.769500
O191	O19	0.048300	0.031600	0.676400
O201	O20	0.994100	0.277900	0.339300
O211	O21	0.286300	0.366300	0.877600
O221	O22	0.371600	0.368200	0.685700
O231	O23	0.836900	0.366000	0.717200
O241	O24	0.914700	0.369300	0.500200
O251	O25	0.017200	0.222300	0.659700
O261	O26	0.010500	0.470400	0.351500
O271	O27	0.177600	0.379700	0.606000
O281	O28	0.092500	0.382100	0.801600
O291	O29	0.797800	0.384900	0.324300
H41	H4	0.800500	0.389200	0.258600
O301	O30	0.215800	0.140100	0.605100
H51	H5	0.248000	0.147900	0.667000
O311	O31	0.733100	0.215100	0.797200
H61	H6	0.682400	0.197400	0.839000
O321	O32	0.798100	0.371600	0.915600
C31	C3	0.206000	0.374000	0.798100
C41	C4	0.255600	0.373400	0.686100
Fe51	Fe5	0.970230	0.121000	0.340820
Fe61	Fe6	0.490540	0.124880	0.147790
P71	P7	0.434430	0.123420	0.881420
P81	P8	0.570730	0.372630	0.107720
P91	P9	0.251970	0.160150	0.303090
O331	O33	0.519400	0.386400	0.991300
O341	O34	0.124200	0.112000	0.269500
O351	O35	0.548300	0.468400	0.176400
O361	O36	0.494100	0.222100	0.839300
O371	O37	0.786300	0.133700	0.377600
O381	O38	0.871600	0.131800	0.185700
O391	O39	0.336900	0.134000	0.217200
O401	O40	0.414700	0.130700	0.000200
O411	O41	0.517200	0.277700	0.159700
O421	O42	0.510500	0.029600	0.851500
O431	O43	0.677600	0.120300	0.106000
O441	O44	0.592500	0.117900	0.301600
O451	O45	0.297800	0.115100	0.824300
H71	H7	0.300500	0.110800	0.758600
O461	O46	0.715800	0.359900	0.105100
H81	H8	0.748000	0.352100	0.167000
O471	O47	0.233100	0.284900	0.297200
H91	H9	0.182400	0.302600	0.339000
O481	O48	0.298100	0.128400	0.415600
C51	C5	0.706000	0.126000	0.298100
C61	C6	0.755600	0.126600	0.186100
Fe71	Fe7	0.529770	0.621000	0.159180
Fe81	Fe8	0.009460	0.624880	0.352210
P101	P10	0.065570	0.623420	0.618580
P111	P11	0.929270	0.872630	0.392280
P121	P12	0.248030	0.660150	0.196910
O491	O49	0.980600	0.886400	0.508700
O501	O50	0.375800	0.612000	0.230500
O511	O51	0.951700	0.968400	0.323600
O521	O52	0.005900	0.722100	0.660700
O531	O53	0.713700	0.633700	0.122400
O541	O54	0.628400	0.631800	0.314300
O551	O55	0.163100	0.634000	0.282800
O561	O56	0.085300	0.630700	0.499800
O571	O57	0.982800	0.777700	0.340300
O581	O58	0.989500	0.529600	0.648500
O591	O59	0.822400	0.620300	0.394000
O601	O60	0.907500	0.617900	0.198400
O611	O61	0.202200	0.615100	0.675700
H101	H10	0.199500	0.610800	0.741400
O621	O62	0.784200	0.859900	0.394900
H111	H11	0.752000	0.852100	0.333000
O631	O63	0.266900	0.784900	0.202800
H121	H12	0.317600	0.802600	0.161000
O641	O64	0.201900	0.628400	0.084400
C71	C7	0.794000	0.626000	0.201900
C81	C8	0.744400	0.626600	0.313900
