data_WOGLAG_clean_PM
_symmetry_space_group_name_H-M	'P1'
_cell_length_a	10.450300
_cell_length_b	11.438000
_cell_length_c	16.645700
_cell_angle_alpha	90.000000
_cell_angle_beta	90.000000
_cell_angle_gamma	108.225000
_symmetry_Int_Tables_number 1

loop_
_symmetry_equiv_pos_as_xyz
'x,y,z'

loop_
_atom_site_label
_atom_site_type_symbol
_atom_site_fract_x
_atom_site_fract_y
_atom_site_fract_z
Mg11	Mg1	0.349220	0.966980	0.540010
Mg21	Mg2	0.794120	0.046260	0.762710
Mg31	Mg3	0.313410	0.105640	0.919950
Mg41	Mg4	0.150780	0.533020	0.040010
Mg51	Mg5	0.705880	0.453740	0.262710
Mg61	Mg6	0.186590	0.394360	0.419950
Mg71	Mg7	0.650780	0.033020	0.459990
Mg81	Mg8	0.205880	0.953740	0.237290
Mg91	Mg9	0.686590	0.894360	0.080050
Mg101	Mg10	0.849220	0.466980	0.959990
Mg111	Mg11	0.294120	0.546260	0.737290
Mg121	Mg12	0.813410	0.605640	0.580050
H11	H1	0.178000	0.997500	0.723200
H21	H2	0.476000	0.831500	0.824700
H31	H3	0.322000	0.502500	0.223200
H41	H4	0.024000	0.668500	0.324700
H51	H5	0.822000	0.002500	0.276800
H61	H6	0.524000	0.168500	0.175300
H71	H7	0.678000	0.497500	0.776800
H81	H8	0.976000	0.331500	0.675300
C11	C1	0.272200	0.018900	0.728210
C21	C2	0.479810	0.054980	0.696820
C31	C3	0.470910	0.080300	0.778010
C41	C4	0.592360	0.066020	0.640270
C51	C5	0.569020	0.120600	0.844280
C61	C6	0.523810	0.803850	0.784520
C71	C7	0.565270	0.693530	0.689760
C81	C8	0.678380	0.795050	0.702360
C91	C9	0.811010	0.844160	0.662550
C101	C10	0.527290	0.586800	0.634340
C111	C11	0.227800	0.481100	0.228210
C121	C12	0.020190	0.445020	0.196820
C131	C13	0.029090	0.419700	0.278010
C141	C14	0.907640	0.433980	0.140270
C151	C15	0.930980	0.379400	0.344280
C161	C16	0.976190	0.696150	0.284520
C171	C17	0.934730	0.806470	0.189760
C181	C18	0.821620	0.704950	0.202360
C191	C19	0.688990	0.655840	0.162550
C201	C20	0.972710	0.913200	0.134340
C211	C21	0.727800	0.981100	0.271790
C221	C22	0.520190	0.945020	0.303180
C231	C23	0.529090	0.919700	0.221990
C241	C24	0.407640	0.933980	0.359730
C251	C25	0.430980	0.879400	0.155720
C261	C26	0.476190	0.196150	0.215480
C271	C27	0.434730	0.306470	0.310240
C281	C28	0.321620	0.204950	0.297640
C291	C29	0.188990	0.155840	0.337450
C301	C30	0.472710	0.413200	0.365660
C311	C31	0.772200	0.518900	0.771790
C321	C32	0.979810	0.554980	0.803180
C331	C33	0.970910	0.580300	0.721990
C341	C34	0.092360	0.566020	0.859730
C351	C35	0.069020	0.620600	0.655720
C361	C36	0.023810	0.303850	0.715480
C371	C37	0.065270	0.193530	0.810240
C381	C38	0.178380	0.295050	0.797640
C391	C39	0.311010	0.344160	0.837450
C401	C40	0.027290	0.086800	0.865660
N11	N1	0.351600	0.015340	0.665850
N21	N2	0.337860	0.057870	0.796980
N31	N3	0.649840	0.865070	0.762860
N41	N4	0.468060	0.700590	0.743070
N51	N5	0.148400	0.484660	0.165850
N61	N6	0.162140	0.442130	0.296980
N71	N7	0.850160	0.634930	0.262860
N81	N8	0.031940	0.799410	0.243070
N91	N9	0.648400	0.984660	0.334150
N101	N10	0.662140	0.942130	0.203020
N111	N11	0.350160	0.134930	0.237140
N121	N12	0.531940	0.299410	0.256930
N131	N13	0.851600	0.515340	0.834150
N141	N14	0.837860	0.557870	0.703020
N151	N15	0.149840	0.365070	0.737140
N161	N16	0.968060	0.200590	0.756930
O11	O1	0.555950	0.044010	0.566880
O21	O2	0.711460	0.094400	0.661970
O31	O3	0.523430	0.144430	0.910980
O41	O4	0.690730	0.129490	0.834800
O51	O5	0.887540	0.944950	0.689730
O61	O6	0.840570	0.789210	0.603150
O71	O7	0.405480	0.519610	0.637780
O81	O8	0.611030	0.563760	0.588030
O91	O9	0.944050	0.455990	0.066880
O101	O10	0.788540	0.405600	0.161970
O111	O11	0.976570	0.355570	0.410980
O121	O12	0.809270	0.370510	0.334800
O131	O13	0.612460	0.555050	0.189730
O141	O14	0.659430	0.710790	0.103150
O151	O15	0.094520	0.980390	0.137780
O161	O16	0.888970	0.936240	0.088030
O171	O17	0.444050	0.955990	0.433120
O181	O18	0.288540	0.905600	0.338030
O191	O19	0.476570	0.855570	0.089020
O201	O20	0.309270	0.870510	0.165200
O211	O21	0.112460	0.055050	0.310270
O221	O22	0.159430	0.210790	0.396850
O231	O23	0.594520	0.480390	0.362220
O241	O24	0.388970	0.436240	0.411970
O251	O25	0.055950	0.544010	0.933120
O261	O26	0.211460	0.594400	0.838030
O271	O27	0.023430	0.644430	0.589020
O281	O28	0.190730	0.629490	0.665200
O291	O29	0.387540	0.444950	0.810270
O301	O30	0.340570	0.289210	0.896850
O311	O31	0.905480	0.019610	0.862220
O321	O32	0.111030	0.063760	0.911970
