data_WOHSOB_clean_PM
_symmetry_space_group_name_H-M	'P1'
_cell_length_a	8.491000
_cell_length_b	19.915000
_cell_length_c	22.077000
_cell_angle_alpha	90.000000
_cell_angle_beta	90.000000
_cell_angle_gamma	90.000000
_symmetry_Int_Tables_number 1

loop_
_symmetry_equiv_pos_as_xyz
'x,y,z'

loop_
_atom_site_label
_atom_site_type_symbol
_atom_site_fract_x
_atom_site_fract_y
_atom_site_fract_z
K11	K1	0.148300	0.006100	0.651200
K21	K2	0.351700	0.993900	0.151200
K31	K3	0.851700	0.506100	0.848800
K41	K4	0.648300	0.493900	0.348800
Cu11	Cu1	0.001600	0.072600	0.406720
Cu21	Cu2	0.694800	0.169000	0.364000
Cu31	Cu3	0.498400	0.927400	0.906720
Cu41	Cu4	0.805200	0.831000	0.864000
Cu51	Cu5	0.998400	0.572600	0.093280
Cu61	Cu6	0.305200	0.669000	0.136000
Cu71	Cu7	0.501600	0.427400	0.593280
Cu81	Cu8	0.194800	0.331000	0.636000
H11	H1	0.844790	0.162380	0.460650
H21	H2	0.831960	0.948590	0.550580
H31	H3	0.647870	0.972640	0.629700
H41	H4	0.647280	0.082520	0.669640
H51	H5	0.771260	0.170400	0.619870
H61	H6	0.946290	0.146760	0.540560
H71	H7	0.332710	0.880460	0.463870
H81	H8	0.408400	0.856310	0.364150
H91	H9	0.321980	0.924690	0.280090
H101	H10	0.915560	0.094370	0.208490
H111	H11	0.837080	0.181280	0.148340
H121	H12	0.866510	0.292270	0.188480
H131	H13	0.962920	0.309990	0.285880
H141	H14	0.057680	0.217490	0.343650
H151	H15	0.355550	0.147180	0.185350
H161	H16	0.311970	0.261920	0.173620
H171	H17	0.432340	0.340400	0.239740
H181	H18	0.777230	0.985390	0.257150
H191	H19	0.871160	0.882690	0.290850
H201	H20	0.846010	0.849830	0.394150
H211	H21	0.715510	0.912380	0.461700
H221	H22	0.647670	0.025300	0.433620
H231	H23	0.653310	0.236200	0.496160
H241	H24	0.761840	0.288920	0.585370
H251	H25	0.916370	0.382880	0.575250
H261	H26	0.987260	0.421110	0.483640
H271	H27	0.891910	0.371110	0.392100
H281	H28	0.655210	0.837620	0.960650
H291	H29	0.668040	0.051410	0.050580
H301	H30	0.852130	0.027360	0.129700
H311	H31	0.852720	0.917480	0.169640
H321	H32	0.728740	0.829600	0.119870
H331	H33	0.553710	0.853240	0.040560
H341	H34	0.167290	0.119540	0.963870
H351	H35	0.091600	0.143690	0.864150
H361	H36	0.178020	0.075310	0.780090
H371	H37	0.584440	0.905630	0.708490
H381	H38	0.662920	0.818720	0.648340
H391	H39	0.633490	0.707730	0.688480
H401	H40	0.537080	0.690010	0.785880
H411	H41	0.442320	0.782510	0.843650
H421	H42	0.144450	0.852820	0.685350
H431	H43	0.188030	0.738080	0.673620
H441	H44	0.067660	0.659600	0.739740
H451	H45	0.722770	0.014610	0.757150
H461	H46	0.628840	0.117310	0.790850
H471	H47	0.653990	0.150170	0.894150
H481	H48	0.784490	0.087620	0.961700
H491	H49	0.852330	0.974700	0.933620
H501	H50	0.846690	0.763800	0.996160
H511	H51	0.738160	0.711080	0.085370
H521	H52	0.583630	0.617120	0.075250
H531	H53	0.512740	0.578890	0.983640
H541	H54	0.608090	0.628890	0.892100
H551	H55	0.155210	0.662380	0.039350
H561	H56	0.168040	0.448590	0.949420
H571	H57	0.352130	0.472640	0.870300
H581	H58	0.352720	0.582520	0.830360
H591	H59	0.228740	0.670400	0.880130
H601	H60	0.053710	0.646760	0.959440
H611	H61	0.667290	0.380460	0.036130
H621	H62	0.591600	0.356310	0.135850
H631	H63	0.678020	0.424690	0.219910
H641	H64	0.084440	0.594370	0.291510
H651	H65	0.162920	0.681280	0.351660
H661	H66	0.133490	0.792270	0.311520
H671	H67	0.037080	0.809990	0.214120
H681	H68	0.942320	0.717490	0.156350
H691	H69	0.644450	0.647180	0.314650
H701	H70	0.688030	0.761920	0.326380
H711	H71	0.567660	0.840400	0.260260
H721	H72	0.222770	0.485390	0.242850
H731	H73	0.128840	0.382690	0.209150
H741	H74	0.153990	0.349830	0.105850
H751	H75	0.284490	0.412380	0.038300
H761	H76	0.352330	0.525300	0.066380
H771	H77	0.346690	0.736200	0.003840
H781	H78	0.238160	0.788920	0.914630
H791	H79	0.083630	0.882880	0.924750
H801	H80	0.012740	0.921110	0.016360
H811	H81	0.108090	0.871110	0.107900
H821	H82	0.344790	0.337620	0.539350
H831	H83	0.331960	0.551410	0.449420
H841	H84	0.147870	0.527360	0.370300
H851	H85	0.147280	0.417480	0.330360
H861	H86	0.271260	0.329600	0.380130
H871	H87	0.446290	0.353240	0.459440
H881	H88	0.832710	0.619540	0.536130
H891	H89	0.908400	0.643690	0.635850
H901	H90	0.821980	0.575310	0.719910
H911	H91	0.415560	0.405630	0.791510
H921	H92	0.337080	0.318720	0.851660
H931	H93	0.366510	0.207730	0.811520
H941	H94	0.462920	0.190010	0.714120
H951	H95	0.557680	0.282510	0.656350
H961	H96	0.855550	0.352820	0.814650
H971	H97	0.811970	0.238080	0.826380
H981	H98	0.932340	0.159600	0.760260
H991	H99	0.277230	0.514610	0.742850
H1001	H100	0.371160	0.617310	0.709150
H1011	H101	0.346010	0.650170	0.605850
H1021	H102	0.215510	0.587620	0.538300
H1031	H103	0.147670	0.474700	0.566380
H1041	H104	0.153310	0.263800	0.503840
H1051	H105	0.261840	0.211080	0.414630
H1061	H106	0.416370	0.117120	0.424750
H1071	H107	0.487260	0.078890	0.516360
H1081	H108	0.391910	0.128890	0.607900
C11	C1	0.905000	0.045500	0.539600
C21	C2	0.821000	0.997000	0.566600
C31	C3	0.715000	0.009000	0.613000
C41	C4	0.707000	0.074000	0.634000
C51	C5	0.787000	0.124000	0.607800
C61	C6	0.886000	0.110400	0.560300
C71	C7	0.111000	0.980000	0.494400
C81	C8	0.188000	0.961700	0.438400
C91	C9	0.290000	0.908000	0.429000
C101	C10	0.341000	0.897000	0.370000
C111	C11	0.294000	0.936000	0.322000
C121	C12	0.194000	0.989000	0.334700
C131	C13	0.125000	0.041000	0.290300
C141	C14	0.998000	0.144500	0.281700
C151	C15	0.927000	0.138000	0.227500
C161	C16	0.881000	0.189000	0.192000
C171	C17	0.899000	0.255000	0.214000
C181	C18	0.962000	0.265000	0.270000
C191	C19	0.009000	0.209000	0.303400
C201	C20	0.689000	0.015400	0.342400
C211	C21	0.765000	0.974000	0.301500
C221	C22	0.820000	0.913000	0.319000
C231	C23	0.803000	0.892000	0.379000
C241	C24	0.733000	0.932000	0.419000
C251	C25	0.682000	0.994100	0.401000
C261	C26	0.559000	0.084700	0.274600
C271	C27	0.507000	0.157800	0.260800
C281	C28	0.408000	0.179000	0.215300
C291	C29	0.381000	0.248000	0.208000
C301	C30	0.452000	0.291000	0.247500
C311	C31	0.547000	0.267000	0.292900
C321	C32	0.637000	0.303900	0.340000
C331	C33	0.757000	0.298200	0.436800
C341	C34	0.724000	0.274900	0.492200
C351	C35	0.785000	0.305000	0.544500
C361	C36	0.879000	0.360000	0.539100
C371	C37	0.917000	0.381000	0.484000
C381	C38	0.861000	0.353000	0.432500
C391	C39	0.595000	0.954500	0.039600
C401	C40	0.679000	0.003000	0.066600
C411	C41	0.785000	0.991000	0.113000
C421	C42	0.793000	0.926000	0.134000
C431	C43	0.713000	0.876000	0.107800
C441	C44	0.614000	0.889600	0.060300
C451	C45	0.389000	0.020000	0.994400
C461	C46	0.312000	0.038300	0.938400
C471	C47	0.210000	0.092000	0.929000
C481	C48	0.159000	0.103000	0.870000
C491	C49	0.206000	0.064000	0.822000
C501	C50	0.306000	0.011000	0.834700
C511	C51	0.375000	0.959000	0.790300
C521	C52	0.502000	0.855500	0.781700
C531	C53	0.573000	0.862000	0.727500
C541	C54	0.619000	0.811000	0.692000
C551	C55	0.601000	0.745000	0.714000
C561	C56	0.538000	0.735000	0.770000
C571	C57	0.491000	0.791000	0.803400
C581	C58	0.811000	0.984600	0.842400
C591	C59	0.735000	0.026000	0.801500
C601	C60	0.680000	0.087000	0.819000
C611	C61	0.697000	0.108000	0.879000
C621	C62	0.767000	0.068000	0.919000
C631	C63	0.818000	0.005900	0.901000
C641	C64	0.941000	0.915300	0.774600
C651	C65	0.993000	0.842200	0.760800
C661	C66	0.092000	0.821000	0.715300
C671	C67	0.119000	0.752000	0.708000
C681	C68	0.048000	0.709000	0.747500
C691	C69	0.953000	0.733000	0.792900
C701	C70	0.863000	0.696100	0.840000
C711	C71	0.743000	0.701800	0.936800
C721	C72	0.776000	0.725100	0.992200
C731	C73	0.715000	0.695000	0.044500
C741	C74	0.621000	0.640000	0.039100
C751	C75	0.583000	0.619000	0.984000
C761	C76	0.639000	0.647000	0.932500
C771	C77	0.095000	0.545500	0.960400
C781	C78	0.179000	0.497000	0.933400
C791	C79	0.285000	0.509000	0.887000
C801	C80	0.293000	0.574000	0.866000
C811	C81	0.213000	0.624000	0.892200
C821	C82	0.114000	0.610400	0.939700
C831	C83	0.889000	0.480000	0.005600
C841	C84	0.812000	0.461700	0.061600
C851	C85	0.710000	0.408000	0.071000
C861	C86	0.659000	0.397000	0.130000
C871	C87	0.706000	0.436000	0.178000
C881	C88	0.806000	0.489000	0.165300
C891	C89	0.875000	0.541000	0.209700
C901	C90	0.002000	0.644500	0.218300
C911	C91	0.073000	0.638000	0.272500
C921	C92	0.119000	0.689000	0.308000
C931	C93	0.101000	0.755000	0.286000
C941	C94	0.038000	0.765000	0.230000
C951	C95	0.991000	0.709000	0.196600
C961	C96	0.311000	0.515400	0.157600
C971	C97	0.235000	0.474000	0.198500
C981	C98	0.180000	0.413000	0.181000
C991	C99	0.197000	0.392000	0.121000
C1001	C100	0.267000	0.432000	0.081000
C1011	C101	0.318000	0.494100	0.099000
C1021	C102	0.441000	0.584700	0.225400
C1031	C103	0.493000	0.657800	0.239200
C1041	C104	0.592000	0.679000	0.284700
C1051	C105	0.619000	0.748000	0.292000
C1061	C106	0.548000	0.791000	0.252500
C1071	C107	0.453000	0.767000	0.207100
C1081	C108	0.363000	0.803900	0.160000
C1091	C109	0.243000	0.798200	0.063200
C1101	C110	0.276000	0.774900	0.007800
C1111	C111	0.215000	0.805000	0.955500
C1121	C112	0.121000	0.860000	0.960900
C1131	C113	0.083000	0.881000	0.016000
C1141	C114	0.139000	0.853000	0.067500
C1151	C115	0.405000	0.454500	0.460400
C1161	C116	0.321000	0.503000	0.433400
C1171	C117	0.215000	0.491000	0.387000
C1181	C118	0.207000	0.426000	0.366000
C1191	C119	0.287000	0.376000	0.392200
C1201	C120	0.386000	0.389600	0.439700
C1211	C121	0.611000	0.520000	0.505600
C1221	C122	0.688000	0.538300	0.561600
C1231	C123	0.790000	0.592000	0.571000
C1241	C124	0.841000	0.603000	0.630000
C1251	C125	0.794000	0.564000	0.678000
C1261	C126	0.694000	0.511000	0.665300
C1271	C127	0.625000	0.459000	0.709700
C1281	C128	0.498000	0.355500	0.718300
C1291	C129	0.427000	0.362000	0.772500
C1301	C130	0.381000	0.311000	0.808000
C1311	C131	0.399000	0.245000	0.786000
C1321	C132	0.462000	0.235000	0.730000
C1331	C133	0.509000	0.291000	0.696600
C1341	C134	0.189000	0.484600	0.657600
C1351	C135	0.265000	0.526000	0.698500
C1361	C136	0.320000	0.587000	0.681000
C1371	C137	0.303000	0.608000	0.621000
C1381	C138	0.233000	0.568000	0.581000
C1391	C139	0.182000	0.505900	0.599000
C1401	C140	0.059000	0.415300	0.725400
C1411	C141	0.007000	0.342200	0.739200
C1421	C142	0.908000	0.321000	0.784700
C1431	C143	0.881000	0.252000	0.792000
C1441	C144	0.952000	0.209000	0.752500
C1451	C145	0.047000	0.233000	0.707100
C1461	C146	0.137000	0.196100	0.660000
C1471	C147	0.257000	0.201800	0.563200
C1481	C148	0.224000	0.225100	0.507800
C1491	C149	0.285000	0.195000	0.455500
C1501	C150	0.379000	0.140000	0.460900
C1511	C151	0.417000	0.119000	0.516000
C1521	C152	0.361000	0.147000	0.567500
N11	N1	0.007000	0.030700	0.489000
N21	N2	0.145000	0.999700	0.390600
N31	N3	0.054000	0.091400	0.318600
N41	N4	0.637000	0.079000	0.326400
N51	N5	0.568000	0.199500	0.298800
N61	N6	0.689000	0.267900	0.385200
N71	N7	0.493000	0.969300	0.989000
N81	N8	0.355000	0.000300	0.890600
N91	N9	0.446000	0.908600	0.818600
N101	N10	0.863000	0.921000	0.826400
N111	N11	0.932000	0.800500	0.798800
N121	N12	0.811000	0.732100	0.885200
N131	N13	0.993000	0.530700	0.011000
N141	N14	0.855000	0.499700	0.109400
N151	N15	0.946000	0.591400	0.181400
N161	N16	0.363000	0.579000	0.173600
N171	N17	0.432000	0.699500	0.201200
N181	N18	0.311000	0.767900	0.114800
N191	N19	0.507000	0.469300	0.511000
N201	N20	0.645000	0.500300	0.609400
N211	N21	0.554000	0.408600	0.681400
N221	N22	0.137000	0.421000	0.673600
N231	N23	0.068000	0.300500	0.701200
N241	N24	0.189000	0.232100	0.614800
O11	O1	0.846000	0.140400	0.420200
O21	O2	0.143000	0.947800	0.542200
O31	O3	0.151000	0.030900	0.236400
O41	O4	0.523000	0.041000	0.236800
O51	O5	0.646000	0.366900	0.334100
O61	O6	0.654000	0.859600	0.920200
O71	O7	0.357000	0.052200	0.042200
O81	O8	0.349000	0.969100	0.736400
O91	O9	0.977000	0.959000	0.736800
O101	O10	0.854000	0.633100	0.834100
O111	O11	0.154000	0.640400	0.079800
O121	O12	0.857000	0.447800	0.957800
O131	O13	0.849000	0.530900	0.263600
O141	O14	0.477000	0.541000	0.263200
O151	O15	0.354000	0.866900	0.165900
O161	O16	0.346000	0.359600	0.579800
O171	O17	0.643000	0.552200	0.457800
O181	O18	0.651000	0.469100	0.763600
O191	O19	0.023000	0.459000	0.763200
O201	O20	0.146000	0.133100	0.665900
