data_WOHZAU_clean_PM
_symmetry_space_group_name_H-M	'P1'
_cell_length_a	9.083500
_cell_length_b	9.083500
_cell_length_c	15.919300
_cell_angle_alpha	88.417300
_cell_angle_beta	88.417300
_cell_angle_gamma	84.771700
_symmetry_Int_Tables_number 1

loop_
_symmetry_equiv_pos_as_xyz
'x,y,z'

loop_
_atom_site_label
_atom_site_type_symbol
_atom_site_fract_x
_atom_site_fract_y
_atom_site_fract_z
Er11	Er1	0.477570	0.277850	0.010990
Er21	Er2	0.722150	0.522430	0.489010
Er31	Er3	0.522430	0.722150	0.989010
Er41	Er4	0.277850	0.477570	0.510990
H11	H1	0.744500	0.065300	0.778200
H21	H2	0.555000	0.849800	0.732700
H31	H3	0.715800	0.811000	0.765500
H41	H4	0.814800	0.935800	0.646800
H51	H5	0.518700	0.981700	0.589300
H61	H6	0.657500	0.029300	0.538000
H71	H7	0.698300	0.205300	0.638400
H81	H8	0.444900	0.121500	0.730500
H91	H9	0.544100	0.244100	0.757200
H101	H10	0.934700	0.255500	0.721800
H111	H11	0.150200	0.445000	0.767300
H121	H12	0.189000	0.284200	0.734500
H131	H13	0.064200	0.185200	0.853200
H141	H14	0.018300	0.481300	0.910700
H151	H15	0.970700	0.342500	0.962000
H161	H16	0.794700	0.301700	0.861600
H171	H17	0.878500	0.555100	0.769500
H181	H18	0.755900	0.455900	0.742800
H191	H19	0.255500	0.934700	0.221800
H201	H20	0.445000	0.150200	0.267300
H211	H21	0.284200	0.189000	0.234500
H221	H22	0.185200	0.064200	0.353200
H231	H23	0.481300	0.018300	0.410700
H241	H24	0.342500	0.970700	0.462000
H251	H25	0.301700	0.794700	0.361600
H261	H26	0.555100	0.878500	0.269500
H271	H27	0.455900	0.755900	0.242800
H281	H28	0.065300	0.744500	0.278200
H291	H29	0.849800	0.555000	0.232700
H301	H30	0.811000	0.715800	0.265500
H311	H31	0.935800	0.814800	0.146800
H321	H32	0.981700	0.518700	0.089300
H331	H33	0.029300	0.657500	0.038000
H341	H34	0.205300	0.698300	0.138400
H351	H35	0.121500	0.444900	0.230500
H361	H36	0.244100	0.544100	0.257200
C11	C1	0.644600	0.032800	0.778400
C21	C2	0.653000	0.884000	0.734300
C31	C3	0.716000	0.901200	0.644200
C41	C4	0.615700	0.016700	0.594200
C51	C5	0.601000	0.166600	0.638500
C61	C6	0.545300	0.149900	0.729800
C71	C7	0.588400	0.025600	0.868800
C81	C8	0.727100	0.759100	0.596800
C91	C9	0.495800	0.274400	0.590400
C101	C10	0.967200	0.355400	0.721600
C111	C11	0.116000	0.347000	0.765700
C121	C12	0.098800	0.284000	0.855800
C131	C13	0.983300	0.384300	0.905800
C141	C14	0.833400	0.399000	0.861500
C151	C15	0.850100	0.454700	0.770200
C161	C16	0.974400	0.411600	0.631200
C171	C17	0.240900	0.272900	0.903200
C181	C18	0.725600	0.504200	0.909600
C191	C19	0.355400	0.967200	0.221600
C201	C20	0.347000	0.116000	0.265700
C211	C21	0.284000	0.098800	0.355800
C221	C22	0.384300	0.983300	0.405800
C231	C23	0.399000	0.833400	0.361500
C241	C24	0.454700	0.850100	0.270200
C251	C25	0.411600	0.974400	0.131200
C261	C26	0.272900	0.240900	0.403200
C271	C27	0.504200	0.725600	0.409600
C281	C28	0.032800	0.644600	0.278400
C291	C29	0.884000	0.653000	0.234300
C301	C30	0.901200	0.716000	0.144200
C311	C31	0.016700	0.615700	0.094200
C321	C32	0.166600	0.601000	0.138500
C331	C33	0.149900	0.545300	0.229800
C341	C34	0.025600	0.588400	0.368800
C351	C35	0.759100	0.727100	0.096800
C361	C36	0.274400	0.495800	0.090400
O11	O1	0.592600	0.140800	0.910200
O21	O2	0.539900	0.909500	0.897600
O31	O3	0.838600	0.726000	0.549200
O41	O4	0.623000	0.676600	0.600600
O51	O5	0.542400	0.382600	0.549500
O61	O6	0.360800	0.256400	0.590300
O71	O7	0.859200	0.407400	0.589800
O81	O8	0.090500	0.460100	0.602400
O91	O9	0.274000	0.161400	0.950800
O101	O10	0.323400	0.377000	0.899400
O111	O11	0.617400	0.457600	0.950500
O121	O12	0.743600	0.639200	0.909700
O131	O13	0.407400	0.859200	0.089800
O141	O14	0.460100	0.090500	0.102400
O151	O15	0.161400	0.274000	0.450800
O161	O16	0.377000	0.323400	0.399400
O171	O17	0.457600	0.617400	0.450500
O181	O18	0.639200	0.743600	0.409700
O191	O19	0.140800	0.592600	0.410200
O201	O20	0.909500	0.539900	0.397600
O211	O21	0.726000	0.838600	0.049200
O221	O22	0.676600	0.623000	0.100600
O231	O23	0.382600	0.542400	0.049500
O241	O24	0.256400	0.360800	0.090300
