data_WOJJOV_SL_PM
_symmetry_space_group_name_H-M	'P1'
_cell_length_a	21.101200
_cell_length_b	21.101200
_cell_length_c	6.609500
_cell_angle_alpha	90.000000
_cell_angle_beta	90.000000
_cell_angle_gamma	90.000000
_symmetry_Int_Tables_number 1

loop_
_symmetry_equiv_pos_as_xyz
'x,y,z'

loop_
_atom_site_label
_atom_site_type_symbol
_atom_site_fract_x
_atom_site_fract_y
_atom_site_fract_z
H11	H1	0.060000	0.210000	0.530000
H21	H2	0.120000	0.322000	0.939000
H31	H3	0.060000	0.370000	0.650000
C41	C4	0.139000	0.253000	0.270000
C51	C5	0.068000	0.257000	0.260000
C61	C6	0.034000	0.289000	0.097000
C71	C7	0.034000	0.230000	0.410000
C81	C8	0.068000	0.322000	0.939000
C91	C9	0.034000	0.350000	0.772000
O101	O10	0.171000	0.248000	0.117000
O111	O11	0.165000	0.251000	0.447000
H121	H12	0.940000	0.790000	0.530000
H131	H13	0.880000	0.678000	0.939000
H141	H14	0.940000	0.630000	0.650000
C151	C15	0.861000	0.747000	0.270000
C161	C16	0.932000	0.743000	0.260000
C171	C17	0.966000	0.711000	0.097000
C181	C18	0.966000	0.770000	0.410000
C191	C19	0.932000	0.678000	0.939000
C201	C20	0.966000	0.650000	0.772000
O211	O21	0.829000	0.752000	0.117000
O221	O22	0.835000	0.749000	0.447000
H231	H23	0.290000	0.560000	0.530000
H241	H24	0.178000	0.620000	0.939000
H251	H25	0.130000	0.560000	0.650000
C261	C26	0.247000	0.639000	0.270000
C271	C27	0.243000	0.568000	0.260000
C281	C28	0.211000	0.534000	0.097000
C291	C29	0.270000	0.534000	0.410000
C301	C30	0.178000	0.568000	0.939000
C311	C31	0.150000	0.534000	0.772000
O321	O32	0.252000	0.671000	0.117000
O331	O33	0.249000	0.665000	0.447000
H341	H34	0.710000	0.440000	0.530000
H351	H35	0.822000	0.380000	0.939000
H361	H36	0.870000	0.440000	0.650000
C371	C37	0.753000	0.361000	0.270000
C381	C38	0.757000	0.432000	0.260000
C391	C39	0.789000	0.466000	0.097000
C401	C40	0.730000	0.466000	0.410000
C411	C41	0.822000	0.432000	0.939000
C421	C42	0.850000	0.466000	0.772000
O431	O43	0.748000	0.329000	0.117000
O441	O44	0.751000	0.335000	0.447000
H451	H45	0.440000	0.710000	0.470000
H461	H46	0.380000	0.822000	0.061000
H471	H47	0.440000	0.870000	0.350000
C481	C48	0.361000	0.753000	0.730000
C491	C49	0.432000	0.757000	0.740000
C501	C50	0.466000	0.789000	0.903000
C511	C51	0.466000	0.730000	0.590000
C521	C52	0.432000	0.822000	0.061000
C531	C53	0.466000	0.850000	0.228000
O541	O54	0.329000	0.748000	0.883000
O551	O55	0.335000	0.751000	0.553000
H561	H56	0.560000	0.290000	0.470000
H571	H57	0.620000	0.178000	0.061000
H581	H58	0.560000	0.130000	0.350000
C591	C59	0.639000	0.247000	0.730000
C601	C60	0.568000	0.243000	0.740000
C611	C61	0.534000	0.211000	0.903000
C621	C62	0.534000	0.270000	0.590000
C631	C63	0.568000	0.178000	0.061000
C641	C64	0.534000	0.150000	0.228000
O651	O65	0.671000	0.252000	0.883000
O661	O66	0.665000	0.249000	0.553000
H671	H67	0.210000	0.060000	0.470000
H681	H68	0.322000	0.120000	0.061000
H691	H69	0.370000	0.060000	0.350000
C701	C70	0.253000	0.139000	0.730000
C711	C71	0.257000	0.068000	0.740000
C721	C72	0.289000	0.034000	0.903000
C731	C73	0.230000	0.034000	0.590000
C741	C74	0.322000	0.068000	0.061000
C751	C75	0.350000	0.034000	0.228000
O761	O76	0.248000	0.171000	0.883000
O771	O77	0.251000	0.165000	0.553000
H781	H78	0.790000	0.940000	0.470000
H791	H79	0.678000	0.880000	0.061000
H801	H80	0.630000	0.940000	0.350000
C811	C81	0.747000	0.861000	0.730000
C821	C82	0.743000	0.932000	0.740000
C831	C83	0.711000	0.966000	0.903000
C841	C84	0.770000	0.966000	0.590000
C851	C85	0.678000	0.932000	0.061000
C861	C86	0.650000	0.966000	0.228000
O871	O87	0.752000	0.829000	0.883000
O881	O88	0.749000	0.835000	0.553000
H891	H89	0.440000	0.290000	0.470000
H901	H90	0.380000	0.178000	0.061000
H911	H91	0.440000	0.130000	0.350000
C921	C92	0.361000	0.247000	0.730000
C931	C93	0.432000	0.243000	0.740000
C941	C94	0.466000	0.211000	0.903000
C951	C95	0.466000	0.270000	0.590000
C961	C96	0.432000	0.178000	0.061000
C971	C97	0.466000	0.150000	0.228000
O981	O98	0.329000	0.252000	0.883000
O991	O99	0.335000	0.249000	0.553000
H1001	H100	0.560000	0.710000	0.470000
H1011	H101	0.620000	0.822000	0.061000
H1021	H102	0.560000	0.870000	0.350000
C1031	C103	0.639000	0.753000	0.730000
C1041	C104	0.568000	0.757000	0.740000
C1051	C105	0.534000	0.789000	0.903000
C1061	C106	0.534000	0.730000	0.590000
C1071	C107	0.568000	0.822000	0.061000
C1081	C108	0.534000	0.850000	0.228000
O1091	O109	0.671000	0.748000	0.883000
O1101	O110	0.665000	0.751000	0.553000
H1111	H111	0.210000	0.940000	0.470000
H1121	H112	0.322000	0.880000	0.061000
H1131	H113	0.370000	0.940000	0.350000
C1141	C114	0.253000	0.861000	0.730000
C1151	C115	0.257000	0.932000	0.740000
C1161	C116	0.289000	0.966000	0.903000
C1171	C117	0.230000	0.966000	0.590000
C1181	C118	0.322000	0.932000	0.061000
C1191	C119	0.350000	0.966000	0.228000
O1201	O120	0.248000	0.829000	0.883000
O1211	O121	0.251000	0.835000	0.553000
H1221	H122	0.790000	0.060000	0.470000
H1231	H123	0.678000	0.120000	0.061000
H1241	H124	0.630000	0.060000	0.350000
C1251	C125	0.747000	0.139000	0.730000
C1261	C126	0.743000	0.068000	0.740000
C1271	C127	0.711000	0.034000	0.903000
C1281	C128	0.770000	0.034000	0.590000
C1291	C129	0.678000	0.068000	0.061000
C1301	C130	0.650000	0.034000	0.228000
O1311	O131	0.752000	0.171000	0.883000
O1321	O132	0.749000	0.165000	0.553000
H1331	H133	0.060000	0.790000	0.530000
H1341	H134	0.120000	0.678000	0.939000
H1351	H135	0.060000	0.630000	0.650000
C1361	C136	0.139000	0.747000	0.270000
C1371	C137	0.068000	0.743000	0.260000
C1381	C138	0.034000	0.711000	0.097000
C1391	C139	0.034000	0.770000	0.410000
C1401	C140	0.068000	0.678000	0.939000
C1411	C141	0.034000	0.650000	0.772000
O1421	O142	0.171000	0.752000	0.117000
O1431	O143	0.165000	0.749000	0.447000
H1441	H144	0.940000	0.210000	0.530000
H1451	H145	0.880000	0.322000	0.939000
H1461	H146	0.940000	0.370000	0.650000
C1471	C147	0.861000	0.253000	0.270000
C1481	C148	0.932000	0.257000	0.260000
C1491	C149	0.966000	0.289000	0.097000
C1501	C150	0.966000	0.230000	0.410000
C1511	C151	0.932000	0.322000	0.939000
C1521	C152	0.966000	0.350000	0.772000
O1531	O153	0.829000	0.248000	0.117000
O1541	O154	0.835000	0.251000	0.447000
H1551	H155	0.290000	0.440000	0.530000
H1561	H156	0.178000	0.380000	0.939000
H1571	H157	0.130000	0.440000	0.650000
C1581	C158	0.247000	0.361000	0.270000
C1591	C159	0.243000	0.432000	0.260000
C1601	C160	0.211000	0.466000	0.097000
C1611	C161	0.270000	0.466000	0.410000
C1621	C162	0.178000	0.432000	0.939000
C1631	C163	0.150000	0.466000	0.772000
O1641	O164	0.252000	0.329000	0.117000
O1651	O165	0.249000	0.335000	0.447000
H1661	H166	0.710000	0.560000	0.530000
H1671	H167	0.822000	0.620000	0.939000
H1681	H168	0.870000	0.560000	0.650000
C1691	C169	0.753000	0.639000	0.270000
C1701	C170	0.757000	0.568000	0.260000
C1711	C171	0.789000	0.534000	0.097000
C1721	C172	0.730000	0.534000	0.410000
C1731	C173	0.822000	0.568000	0.939000
C1741	C174	0.850000	0.534000	0.772000
O1751	O175	0.748000	0.671000	0.117000
O1761	O176	0.751000	0.665000	0.447000
H1771	H177	0.304700	0.195300	0.285000
O1781	O178	0.281000	0.219000	0.285000
H1791	H179	0.695300	0.804700	0.285000
O1801	O180	0.719000	0.781000	0.285000
H1811	H181	0.304700	0.804700	0.285000
O1821	O182	0.281000	0.781000	0.285000
H1831	H183	0.695300	0.195300	0.285000
O1841	O184	0.719000	0.219000	0.285000
H1851	H185	0.195300	0.695300	0.715000
O1861	O186	0.219000	0.719000	0.715000
H1871	H187	0.804700	0.304700	0.715000
O1881	O188	0.781000	0.281000	0.715000
H1891	H189	0.195300	0.304700	0.715000
O1901	O190	0.219000	0.281000	0.715000
H1911	H191	0.804700	0.695300	0.715000
O1921	O192	0.781000	0.719000	0.715000
Al1931	Al193	0.250000	0.750000	0.000000
Al1941	Al194	0.750000	0.250000	0.000000
Al1951	Al195	0.750000	0.750000	0.000000
Al1961	Al196	0.250000	0.250000	0.000000
Al1971	Al197	0.250000	0.750000	0.500000
Al1981	Al198	0.750000	0.250000	0.500000
Al1991	Al199	0.750000	0.750000	0.500000
Al2001	Al200	0.250000	0.250000	0.500000
