data_WOJZOM_clean_PM
_symmetry_space_group_name_H-M	'P1'
_cell_length_a	24.811200
_cell_length_b	13.746100
_cell_length_c	13.662700
_cell_angle_alpha	90.000000
_cell_angle_beta	99.153000
_cell_angle_gamma	90.000000
_symmetry_Int_Tables_number 1

loop_
_symmetry_equiv_pos_as_xyz
'x,y,z'

loop_
_atom_site_label
_atom_site_type_symbol
_atom_site_fract_x
_atom_site_fract_y
_atom_site_fract_z
Sm11	Sm1	0.170230	0.215480	0.461040
C11	C1	0.075300	0.280480	0.537480
C21	C2	0.024020	0.311820	0.574740
C31	C3	0.985780	0.243600	0.593200
H11	H1	0.993200	0.177600	0.588600
C41	C4	0.936290	0.273700	0.618500
H21	H2	0.910700	0.227200	0.629800
C51	C5	0.924100	0.372060	0.627470
C61	C6	0.963220	0.439800	0.610700
H31	H3	0.956400	0.506000	0.615700
C71	C7	0.012690	0.408000	0.586200
H41	H4	0.039000	0.453900	0.577400
C81	C8	0.869360	0.399930	0.650190
C91	C9	0.846190	0.346570	0.719140
H51	H5	0.866800	0.298200	0.755000
C101	C10	0.793350	0.363010	0.736300
C111	C11	0.761880	0.433460	0.679970
H61	H6	0.725400	0.442100	0.686400
C121	C12	0.785620	0.491030	0.613710
C131	C13	0.838860	0.475290	0.600360
H71	H7	0.854600	0.515300	0.557800
C141	C14	0.771290	0.307120	0.816850
C151	C15	0.750780	0.569700	0.558730
O11	O1	0.106960	0.343080	0.513990
O21	O2	0.084390	0.189950	0.528220
O31	O3	0.772730	0.644620	0.530410
O41	O4	0.699630	0.558920	0.543450
O51	O5	0.723060	0.327430	0.830110
O61	O6	0.801910	0.246710	0.864040
Sm21	Sm2	0.670230	0.715480	0.461040
C161	C16	0.575300	0.780480	0.537480
C171	C17	0.524020	0.811820	0.574740
C181	C18	0.485780	0.743600	0.593200
H81	H8	0.493200	0.677600	0.588600
C191	C19	0.436290	0.773700	0.618500
H91	H9	0.410700	0.727200	0.629800
C201	C20	0.424100	0.872060	0.627470
C211	C21	0.463220	0.939800	0.610700
H101	H10	0.456400	0.006000	0.615700
C221	C22	0.512690	0.908000	0.586200
H111	H11	0.539000	0.953900	0.577400
C231	C23	0.369360	0.899930	0.650190
C241	C24	0.346190	0.846570	0.719140
H121	H12	0.366800	0.798200	0.755000
C251	C25	0.293350	0.863010	0.736300
C261	C26	0.261880	0.933460	0.679970
H131	H13	0.225400	0.942100	0.686400
C271	C27	0.285620	0.991030	0.613710
C281	C28	0.338860	0.975290	0.600360
H141	H14	0.354600	0.015300	0.557800
C291	C29	0.271290	0.807120	0.816850
C301	C30	0.250780	0.069700	0.558730
O71	O7	0.606960	0.843080	0.513990
O81	O8	0.584390	0.689950	0.528220
O91	O9	0.272730	0.144620	0.530410
O101	O10	0.199630	0.058920	0.543450
O111	O11	0.223060	0.827430	0.830110
O121	O12	0.301910	0.746710	0.864040
Sm31	Sm3	0.829770	0.215480	0.038960
C311	C31	0.924700	0.280480	0.962520
C321	C32	0.975980	0.311820	0.925260
C331	C33	0.014220	0.243600	0.906800
H151	H15	0.006800	0.177600	0.911400
C341	C34	0.063710	0.273700	0.881500
H161	H16	0.089300	0.227200	0.870200
C351	C35	0.075900	0.372060	0.872530
C361	C36	0.036780	0.439800	0.889300
H171	H17	0.043600	0.506000	0.884300
C371	C37	0.987310	0.408000	0.913800
H181	H18	0.961000	0.453900	0.922600
C381	C38	0.130640	0.399930	0.849810
C391	C39	0.153810	0.346570	0.780860
H191	H19	0.133200	0.298200	0.745000
C401	C40	0.206650	0.363010	0.763700
C411	C41	0.238120	0.433460	0.820030
H201	H20	0.274600	0.442100	0.813600
C421	C42	0.214380	0.491030	0.886290
C431	C43	0.161140	0.475290	0.899640
H211	H21	0.145400	0.515300	0.942200
C441	C44	0.228710	0.307120	0.683150
C451	C45	0.249220	0.569700	0.941270
O131	O13	0.893040	0.343080	0.986010
O141	O14	0.915610	0.189950	0.971780
O151	O15	0.227270	0.644620	0.969590
O161	O16	0.300370	0.558920	0.956550
O171	O17	0.276940	0.327430	0.669890
O181	O18	0.198090	0.246710	0.635960
Sm41	Sm4	0.329770	0.715480	0.038960
C461	C46	0.424700	0.780480	0.962520
C471	C47	0.475980	0.811820	0.925260
C481	C48	0.514220	0.743600	0.906800
H221	H22	0.506800	0.677600	0.911400
C491	C49	0.563710	0.773700	0.881500
H231	H23	0.589300	0.727200	0.870200
C501	C50	0.575900	0.872060	0.872530
C511	C51	0.536780	0.939800	0.889300
H241	H24	0.543600	0.006000	0.884300
C521	C52	0.487310	0.908000	0.913800
H251	H25	0.461000	0.953900	0.922600
C531	C53	0.630640	0.899930	0.849810
C541	C54	0.653810	0.846570	0.780860
H261	H26	0.633200	0.798200	0.745000
C551	C55	0.706650	0.863010	0.763700
C561	C56	0.738120	0.933460	0.820030
H271	H27	0.774600	0.942100	0.813600
C571	C57	0.714380	0.991030	0.886290
C581	C58	0.661140	0.975290	0.899640
H281	H28	0.645400	0.015300	0.942200
C591	C59	0.728710	0.807120	0.683150
C601	C60	0.749220	0.069700	0.941270
O191	O19	0.393040	0.843080	0.986010
O201	O20	0.415610	0.689950	0.971780
O211	O21	0.727270	0.144620	0.969590
O221	O22	0.800370	0.058920	0.956550
O231	O23	0.776940	0.827430	0.669890
O241	O24	0.698090	0.746710	0.635960
Sm51	Sm5	0.829770	0.784520	0.538960
C611	C61	0.924700	0.719520	0.462520
C621	C62	0.975980	0.688180	0.425260
C631	C63	0.014220	0.756400	0.406800
H291	H29	0.006800	0.822400	0.411400
C641	C64	0.063710	0.726300	0.381500
H301	H30	0.089300	0.772800	0.370200
C651	C65	0.075900	0.627940	0.372530
C661	C66	0.036780	0.560200	0.389300
H311	H31	0.043600	0.494000	0.384300
C671	C67	0.987310	0.592000	0.413800
H321	H32	0.961000	0.546100	0.422600
C681	C68	0.130640	0.600070	0.349810
C691	C69	0.153810	0.653430	0.280860
H331	H33	0.133200	0.701800	0.245000
C701	C70	0.206650	0.636990	0.263700
C711	C71	0.238120	0.566540	0.320030
H341	H34	0.274600	0.557900	0.313600
C721	C72	0.214380	0.508970	0.386290
C731	C73	0.161140	0.524710	0.399640
H351	H35	0.145400	0.484700	0.442200
C741	C74	0.228710	0.692880	0.183150
C751	C75	0.249220	0.430300	0.441270
O251	O25	0.893040	0.656920	0.486010
O261	O26	0.915610	0.810050	0.471780
O271	O27	0.227270	0.355380	0.469590
O281	O28	0.300370	0.441080	0.456550
O291	O29	0.276940	0.672570	0.169890
O301	O30	0.198090	0.753290	0.135960
Sm61	Sm6	0.329770	0.284520	0.538960
C761	C76	0.424700	0.219520	0.462520
C771	C77	0.475980	0.188180	0.425260
C781	C78	0.514220	0.256400	0.406800
H361	H36	0.506800	0.322400	0.411400
C791	C79	0.563710	0.226300	0.381500
H371	H37	0.589300	0.272800	0.370200
C801	C80	0.575900	0.127940	0.372530
C811	C81	0.536780	0.060200	0.389300
H381	H38	0.543600	0.994000	0.384300
C821	C82	0.487310	0.092000	0.413800
H391	H39	0.461000	0.046100	0.422600
C831	C83	0.630640	0.100070	0.349810
C841	C84	0.653810	0.153430	0.280860
H401	H40	0.633200	0.201800	0.245000
C851	C85	0.706650	0.136990	0.263700
C861	C86	0.738120	0.066540	0.320030
H411	H41	0.774600	0.057900	0.313600
C871	C87	0.714380	0.008970	0.386290
C881	C88	0.661140	0.024710	0.399640
H421	H42	0.645400	0.984700	0.442200
C891	C89	0.728710	0.192880	0.183150
C901	C90	0.749220	0.930300	0.441270
O311	O31	0.393040	0.156920	0.486010
O321	O32	0.415610	0.310050	0.471780
O331	O33	0.727270	0.855380	0.469590
O341	O34	0.800370	0.941080	0.456550
O351	O35	0.776940	0.172570	0.169890
O361	O36	0.698090	0.253290	0.135960
Sm71	Sm7	0.170230	0.784520	0.961040
C911	C91	0.075300	0.719520	0.037480
C921	C92	0.024020	0.688180	0.074740
C931	C93	0.985780	0.756400	0.093200
H431	H43	0.993200	0.822400	0.088600
C941	C94	0.936290	0.726300	0.118500
H441	H44	0.910700	0.772800	0.129800
C951	C95	0.924100	0.627940	0.127470
C961	C96	0.963220	0.560200	0.110700
H451	H45	0.956400	0.494000	0.115700
C971	C97	0.012690	0.592000	0.086200
H461	H46	0.039000	0.546100	0.077400
C981	C98	0.869360	0.600070	0.150190
C991	C99	0.846190	0.653430	0.219140
H471	H47	0.866800	0.701800	0.255000
C1001	C100	0.793350	0.636990	0.236300
C1011	C101	0.761880	0.566540	0.179970
H481	H48	0.725400	0.557900	0.186400
C1021	C102	0.785620	0.508970	0.113710
C1031	C103	0.838860	0.524710	0.100360
H491	H49	0.854600	0.484700	0.057800
C1041	C104	0.771290	0.692880	0.316850
C1051	C105	0.750780	0.430300	0.058730
O371	O37	0.106960	0.656920	0.013990
O381	O38	0.084390	0.810050	0.028220
O391	O39	0.772730	0.355380	0.030410
O401	O40	0.699630	0.441080	0.043450
O411	O41	0.723060	0.672570	0.330110
O421	O42	0.801910	0.753290	0.364040
Sm81	Sm8	0.670230	0.284520	0.961040
C1061	C106	0.575300	0.219520	0.037480
C1071	C107	0.524020	0.188180	0.074740
C1081	C108	0.485780	0.256400	0.093200
H501	H50	0.493200	0.322400	0.088600
C1091	C109	0.436290	0.226300	0.118500
H511	H51	0.410700	0.272800	0.129800
C1101	C110	0.424100	0.127940	0.127470
C1111	C111	0.463220	0.060200	0.110700
H521	H52	0.456400	0.994000	0.115700
C1121	C112	0.512690	0.092000	0.086200
H531	H53	0.539000	0.046100	0.077400
C1131	C113	0.369360	0.100070	0.150190
C1141	C114	0.346190	0.153430	0.219140
H541	H54	0.366800	0.201800	0.255000
C1151	C115	0.293350	0.136990	0.236300
C1161	C116	0.261880	0.066540	0.179970
H551	H55	0.225400	0.057900	0.186400
C1171	C117	0.285620	0.008970	0.113710
C1181	C118	0.338860	0.024710	0.100360
H561	H56	0.354600	0.984700	0.057800
C1191	C119	0.271290	0.192880	0.316850
C1201	C120	0.250780	0.930300	0.058730
O431	O43	0.606960	0.156920	0.013990
O441	O44	0.584390	0.310050	0.028220
O451	O45	0.272730	0.855380	0.030410
O461	O46	0.199630	0.941080	0.043450
O471	O47	0.223060	0.172570	0.330110
O481	O48	0.301910	0.253290	0.364040
