data_WOLYON_clean_PM
_symmetry_space_group_name_H-M	'P1'
_cell_length_a	33.412400
_cell_length_b	33.412400
_cell_length_c	13.066500
_cell_angle_alpha	90.000000
_cell_angle_beta	90.000000
_cell_angle_gamma	90.000000
_symmetry_Int_Tables_number 1

loop_
_symmetry_equiv_pos_as_xyz
'x,y,z'

loop_
_atom_site_label
_atom_site_type_symbol
_atom_site_fract_x
_atom_site_fract_y
_atom_site_fract_z
Mn11	Mn1	0.223200	0.843760	0.996970
O11	O1	0.250160	0.723380	0.092000
O21	O2	0.239810	0.783080	0.014700
O31	O3	0.163510	0.782860	0.678900
O41	O4	0.150120	0.724410	0.612300
O51	O5	0.114000	0.510650	0.978400
O61	O6	0.111780	0.542960	0.685200
O71	O7	0.311880	0.374180	0.619100
O81	O8	0.335600	0.337560	0.751400
O91	O9	0.273600	0.350620	0.092200
O101	O10	0.217900	0.385500	0.112900
C11	C1	0.233200	0.745800	0.023000
C21	C2	0.205100	0.725690	0.950100
C31	C3	0.194970	0.744670	0.859000
H11	H1	0.203900	0.771200	0.846300
C41	C4	0.171830	0.724820	0.786700
C51	C5	0.158810	0.685990	0.805300
H21	H2	0.143000	0.672400	0.755900
C61	C6	0.168940	0.667010	0.896400
C71	C7	0.192080	0.686850	0.968800
H31	H3	0.199000	0.673900	0.031000
C81	C8	0.160200	0.745100	0.691300
C91	C9	0.155180	0.624980	0.916200
C101	C10	0.164340	0.593620	0.850400
C111	C11	0.150620	0.555220	0.871500
C121	C12	0.127730	0.548190	0.958500
C131	C13	0.118570	0.579550	0.024400
C141	C14	0.132300	0.617940	0.003200
H41	H4	0.126000	0.639400	0.048200
C151	C15	0.191900	0.599800	0.757000
H51	H5	0.199100	0.628100	0.751500
H61	H6	0.177900	0.591400	0.694700
H71	H7	0.216300	0.583800	0.765500
C161	C16	0.160370	0.520030	0.804800
C171	C17	0.139550	0.515040	0.713600
C181	C18	0.146670	0.481630	0.652900
C191	C19	0.174620	0.453210	0.683300
H81	H8	0.179500	0.430400	0.641900
C201	C20	0.195450	0.458210	0.774500
C211	C21	0.188320	0.491620	0.835300
C221	C22	0.213700	0.502100	0.931200
H91	H9	0.232300	0.480100	0.945600
H101	H10	0.195900	0.505900	0.990100
H111	H11	0.228800	0.526700	0.918500
C231	C23	0.223570	0.425220	0.810600
C241	C24	0.252560	0.409870	0.745200
H121	H12	0.254000	0.418900	0.676300
C251	C25	0.279520	0.381370	0.780600
C261	C26	0.277480	0.368210	0.881300
H131	H13	0.295900	0.348700	0.905500
C271	C27	0.248490	0.383560	0.946800
C281	C28	0.221530	0.412060	0.911400
H141	H14	0.201700	0.422600	0.956100
C291	C29	0.244500	0.373000	0.060400
C301	C30	0.310000	0.364200	0.710300
C311	C31	0.093500	0.571800	0.125100
C321	C32	0.051500	0.555300	0.097000
H151	H15	0.036200	0.550400	0.159800
H161	H16	0.054400	0.530200	0.059100
H171	H17	0.037300	0.574900	0.054500
C331	C33	0.114700	0.541400	0.194400
H181	H18	0.098600	0.537000	0.256100
H191	H19	0.141100	0.551800	0.213700
H201	H20	0.118000	0.516100	0.157600
C341	C34	0.087000	0.609200	0.186400
H211	H21	0.071500	0.602800	0.247900
H221	H22	0.072400	0.628800	0.145000
H231	H23	0.113000	0.620400	0.206500
C351	C35	0.124700	0.476500	0.546500
C361	C36	0.079600	0.474300	0.561000
H241	H24	0.066600	0.471300	0.494200
H251	H25	0.070200	0.498900	0.593800
H261	H26	0.073000	0.451300	0.604300
C371	C37	0.135600	0.512700	0.476900
H271	H27	0.122200	0.509900	0.410600
H281	H28	0.164700	0.513500	0.466400
H291	H29	0.126900	0.537600	0.509700
C381	C38	0.136400	0.438600	0.493200
H301	H30	0.122300	0.436800	0.427600
H311	H31	0.129300	0.415600	0.536100
H321	H32	0.165300	0.438600	0.480900
Mn21	Mn2	0.776800	0.156240	0.496970
O111	O11	0.749840	0.276620	0.592000
O121	O12	0.760190	0.216920	0.514700
O131	O13	0.836490	0.217140	0.178900
O141	O14	0.849880	0.275590	0.112300
O151	O15	0.886000	0.489350	0.478400
O161	O16	0.888220	0.457040	0.185200
O171	O17	0.688120	0.625820	0.119100
O181	O18	0.664400	0.662440	0.251400
O191	O19	0.726400	0.649380	0.592200
O201	O20	0.782100	0.614500	0.612900
C391	C39	0.766800	0.254200	0.523000
C401	C40	0.794900	0.274310	0.450100
C411	C41	0.805030	0.255330	0.359000
H331	H33	0.796100	0.228800	0.346300
C421	C42	0.828170	0.275180	0.286700
C431	C43	0.841190	0.314010	0.305300
H341	H34	0.857000	0.327600	0.255900
C441	C44	0.831060	0.332990	0.396400
C451	C45	0.807920	0.313150	0.468800
H351	H35	0.801000	0.326100	0.531000
C461	C46	0.839800	0.254900	0.191300
C471	C47	0.844820	0.375020	0.416200
C481	C48	0.835660	0.406380	0.350400
C491	C49	0.849380	0.444780	0.371500
C501	C50	0.872270	0.451810	0.458500
C511	C51	0.881430	0.420450	0.524400
C521	C52	0.867700	0.382060	0.503200
H361	H36	0.874000	0.360600	0.548200
C531	C53	0.808100	0.400200	0.257000
H371	H37	0.800900	0.371900	0.251500
H381	H38	0.822100	0.408600	0.194700
H391	H39	0.783700	0.416200	0.265500
C541	C54	0.839630	0.479970	0.304800
C551	C55	0.860450	0.484960	0.213600
C561	C56	0.853330	0.518370	0.152900
C571	C57	0.825380	0.546790	0.183300
H401	H40	0.820500	0.569600	0.141900
C581	C58	0.804550	0.541790	0.274500
C591	C59	0.811680	0.508380	0.335300
C601	C60	0.786300	0.497900	0.431200
H411	H41	0.767700	0.519900	0.445600
H421	H42	0.804100	0.494100	0.490100
H431	H43	0.771200	0.473300	0.418500
C611	C61	0.776430	0.574780	0.310600
C621	C62	0.747440	0.590130	0.245200
H441	H44	0.746000	0.581100	0.176300
C631	C63	0.720480	0.618630	0.280600
C641	C64	0.722520	0.631790	0.381300
H451	H45	0.704100	0.651300	0.405500
C651	C65	0.751510	0.616440	0.446800
C661	C66	0.778470	0.587940	0.411400
H461	H46	0.798300	0.577400	0.456100
C671	C67	0.755500	0.627000	0.560400
C681	C68	0.690000	0.635800	0.210300
C691	C69	0.906500	0.428200	0.625100
C701	C70	0.948500	0.444700	0.597000
H471	H47	0.963800	0.449600	0.659800
H481	H48	0.945600	0.469800	0.559100
H491	H49	0.962700	0.425100	0.554500
C711	C71	0.885300	0.458600	0.694400
H501	H50	0.901400	0.463000	0.756100
H511	H51	0.858900	0.448200	0.713700
H521	H52	0.882000	0.483900	0.657600
C721	C72	0.913000	0.390800	0.686400
H531	H53	0.928500	0.397200	0.747900
H541	H54	0.927600	0.371200	0.645000
H551	H55	0.887000	0.379600	0.706500
C731	C73	0.875300	0.523500	0.046500
C741	C74	0.920400	0.525700	0.061000
H561	H56	0.933400	0.528700	0.994200
H571	H57	0.929800	0.501100	0.093800
H581	H58	0.927000	0.548700	0.104300
C751	C75	0.864400	0.487300	0.976900
H591	H59	0.877800	0.490100	0.910600
H601	H60	0.835300	0.486500	0.966400
H611	H61	0.873100	0.462400	0.009700
C761	C76	0.863600	0.561400	0.993200
H621	H62	0.877700	0.563200	0.927600
H631	H63	0.870700	0.584400	0.036100
H641	H64	0.834700	0.561400	0.980900
Mn31	Mn3	0.656240	0.723200	0.246970
O211	O21	0.776620	0.750160	0.342000
O221	O22	0.716920	0.739810	0.264700
O231	O23	0.717140	0.663510	0.928900
O241	O24	0.775590	0.650120	0.862300
O251	O25	0.989350	0.614000	0.228400
O261	O26	0.957040	0.611780	0.935200
O271	O27	0.125820	0.811880	0.869100
O281	O28	0.162440	0.835600	0.001400
O291	O29	0.149380	0.773600	0.342200
O301	O30	0.114500	0.717900	0.362900
C771	C77	0.754200	0.733200	0.273000
C781	C78	0.774310	0.705100	0.200100
C791	C79	0.755330	0.694970	0.109000
H651	H65	0.728800	0.703900	0.096300
C801	C80	0.775180	0.671830	0.036700
C811	C81	0.814010	0.658810	0.055300
H661	H66	0.827600	0.643000	0.005900
C821	C82	0.832990	0.668940	0.146400
C831	C83	0.813150	0.692080	0.218800
H671	H67	0.826100	0.699000	0.281000
C841	C84	0.754900	0.660200	0.941300
C851	C85	0.875020	0.655180	0.166200
C861	C86	0.906380	0.664340	0.100400
C871	C87	0.944780	0.650620	0.121500
C881	C88	0.951810	0.627730	0.208500
C891	C89	0.920450	0.618570	0.274400
C901	C90	0.882060	0.632300	0.253200
H681	H68	0.860600	0.626000	0.298200
C911	C91	0.900200	0.691900	0.007000
H691	H69	0.871900	0.699100	0.001500
H701	H70	0.908600	0.677900	0.944700
H711	H71	0.916200	0.716300	0.015500
C921	C92	0.979970	0.660370	0.054800
C931	C93	0.984960	0.639550	0.963600
C941	C94	0.018370	0.646670	0.902900
C951	C95	0.046790	0.674620	0.933300
H721	H72	0.069600	0.679500	0.891900
C961	C96	0.041790	0.695450	0.024500
C971	C97	0.008380	0.688320	0.085300
C981	C98	0.997900	0.713700	0.181200
H731	H73	0.019900	0.732300	0.195600
H741	H74	0.994100	0.695900	0.240100
H751	H75	0.973300	0.728800	0.168500
C991	C99	0.074780	0.723570	0.060600
C1001	C100	0.090130	0.752560	0.995200
H761	H76	0.081100	0.754000	0.926300
C1011	C101	0.118630	0.779520	0.030600
C1021	C102	0.131790	0.777480	0.131300
H771	H77	0.151300	0.795900	0.155500
C1031	C103	0.116440	0.748490	0.196800
C1041	C104	0.087940	0.721530	0.161400
H781	H78	0.077400	0.701700	0.206100
C1051	C105	0.127000	0.744500	0.310400
C1061	C106	0.135800	0.810000	0.960300
C1071	C107	0.928200	0.593500	0.375100
C1081	C108	0.944700	0.551500	0.347000
H791	H79	0.949600	0.536200	0.409800
H801	H80	0.969800	0.554400	0.309100
H811	H81	0.925100	0.537300	0.304500
C1091	C109	0.958600	0.614700	0.444400
H821	H82	0.963000	0.598600	0.506100
H831	H83	0.948200	0.641100	0.463700
H841	H84	0.983900	0.618000	0.407600
C1101	C110	0.890800	0.587000	0.436400
H851	H85	0.897200	0.571500	0.497900
H861	H86	0.871200	0.572400	0.395000
H871	H87	0.879600	0.613000	0.456500
C1111	C111	0.023500	0.624700	0.796500
C1121	C112	0.025700	0.579600	0.811000
H881	H88	0.028700	0.566600	0.744200
H891	H89	0.001100	0.570200	0.843800
H901	H90	0.048700	0.573000	0.854300
C1131	C113	0.987300	0.635600	0.726900
H911	H91	0.990100	0.622200	0.660600
H921	H92	0.986500	0.664700	0.716400
H931	H93	0.962400	0.626900	0.759700
C1141	C114	0.061400	0.636400	0.743200
H941	H94	0.063200	0.622300	0.677600
H951	H95	0.084400	0.629300	0.786100
H961	H96	0.061400	0.665300	0.730900
Mn41	Mn4	0.343760	0.276800	0.746970
O311	O31	0.223380	0.249840	0.842000
O321	O32	0.283080	0.260190	0.764700
O331	O33	0.282860	0.336490	0.428900
O341	O34	0.224410	0.349880	0.362300
O351	O35	0.010650	0.386000	0.728400
O361	O36	0.042960	0.388220	0.435200
O371	O37	0.874180	0.188120	0.369100
O381	O38	0.837560	0.164400	0.501400
O391	O39	0.850620	0.226400	0.842200
O401	O40	0.885500	0.282100	0.862900
C1151	C115	0.245800	0.266800	0.773000
C1161	C116	0.225690	0.294900	0.700100
C1171	C117	0.244670	0.305030	0.609000
H971	H97	0.271200	0.296100	0.596300
C1181	C118	0.224820	0.328170	0.536700
C1191	C119	0.185990	0.341190	0.555300
H981	H98	0.172400	0.357000	0.505900
C1201	C120	0.167010	0.331060	0.646400
C1211	C121	0.186850	0.307920	0.718800
H991	H99	0.173900	0.301000	0.781000
C1221	C122	0.245100	0.339800	0.441300
C1231	C123	0.124980	0.344820	0.666200
C1241	C124	0.093620	0.335660	0.600400
C1251	C125	0.055220	0.349380	0.621500
C1261	C126	0.048190	0.372270	0.708500
C1271	C127	0.079550	0.381430	0.774400
C1281	C128	0.117940	0.367700	0.753200
H1001	H100	0.139400	0.374000	0.798200
C1291	C129	0.099800	0.308100	0.507000
H1011	H101	0.128100	0.300900	0.501500
H1021	H102	0.091400	0.322100	0.444700
H1031	H103	0.083800	0.283700	0.515500
C1301	C130	0.020030	0.339630	0.554800
C1311	C131	0.015040	0.360450	0.463600
C1321	C132	0.981630	0.353330	0.402900
C1331	C133	0.953210	0.325380	0.433300
H1041	H104	0.930400	0.320500	0.391900
C1341	C134	0.958210	0.304550	0.524500
C1351	C135	0.991620	0.311680	0.585300
C1361	C136	0.002100	0.286300	0.681200
H1051	H105	0.980100	0.267700	0.695600
H1061	H106	0.005900	0.304100	0.740100
H1071	H107	0.026700	0.271200	0.668500
C1371	C137	0.925220	0.276430	0.560600
C1381	C138	0.909870	0.247440	0.495200
H1081	H108	0.918900	0.246000	0.426300
C1391	C139	0.881370	0.220480	0.530600
C1401	C140	0.868210	0.222520	0.631300
H1091	H109	0.848700	0.204100	0.655500
C1411	C141	0.883560	0.251510	0.696800
C1421	C142	0.912060	0.278470	0.661400
H1101	H110	0.922600	0.298300	0.706100
C1431	C143	0.873000	0.255500	0.810400
C1441	C144	0.864200	0.190000	0.460300
C1451	C145	0.071800	0.406500	0.875100
C1461	C146	0.055300	0.448500	0.847000
H1111	H111	0.050400	0.463800	0.909800
H1121	H112	0.030200	0.445600	0.809100
H1131	H113	0.074900	0.462700	0.804500
C1471	C147	0.041400	0.385300	0.944400
H1141	H114	0.037000	0.401400	0.006100
H1151	H115	0.051800	0.358900	0.963700
H1161	H116	0.016100	0.382000	0.907600
C1481	C148	0.109200	0.413000	0.936400
H1171	H117	0.102800	0.428500	0.997900
H1181	H118	0.128800	0.427600	0.895000
H1191	H119	0.120400	0.387000	0.956500
C1491	C149	0.976500	0.375300	0.296500
C1501	C150	0.974300	0.420400	0.311000
H1201	H120	0.971300	0.433400	0.244200
H1211	H121	0.998900	0.429800	0.343800
H1221	H122	0.951300	0.427000	0.354300
C1511	C151	0.012700	0.364400	0.226900
H1231	H123	0.009900	0.377800	0.160600
H1241	H124	0.013500	0.335300	0.216400
H1251	H125	0.037600	0.373100	0.259700
C1521	C152	0.938600	0.363600	0.243200
H1261	H126	0.936800	0.377700	0.177600
H1271	H127	0.915600	0.370700	0.286100
H1281	H128	0.938600	0.334700	0.230900
Mn51	Mn5	0.276800	0.343760	0.253030
O411	O41	0.249840	0.223380	0.158000
O421	O42	0.260190	0.283080	0.235300
O431	O43	0.336490	0.282860	0.571100
O441	O44	0.349880	0.224410	0.637700
O451	O45	0.386000	0.010650	0.271600
O461	O46	0.388220	0.042960	0.564800
O471	O47	0.188120	0.874180	0.630900
O481	O48	0.164400	0.837560	0.498600
O491	O49	0.226400	0.850620	0.157800
O501	O50	0.282100	0.885500	0.137100
C1531	C153	0.266800	0.245800	0.227000
C1541	C154	0.294900	0.225690	0.299900
C1551	C155	0.305030	0.244670	0.391000
H1291	H129	0.296100	0.271200	0.403700
C1561	C156	0.328170	0.224820	0.463300
C1571	C157	0.341190	0.185990	0.444700
H1301	H130	0.357000	0.172400	0.494100
C1581	C158	0.331060	0.167010	0.353600
C1591	C159	0.307920	0.186850	0.281200
H1311	H131	0.301000	0.173900	0.219000
C1601	C160	0.339800	0.245100	0.558700
C1611	C161	0.344820	0.124980	0.333800
C1621	C162	0.335660	0.093620	0.399600
C1631	C163	0.349380	0.055220	0.378500
C1641	C164	0.372270	0.048190	0.291500
C1651	C165	0.381430	0.079550	0.225600
C1661	C166	0.367700	0.117940	0.246800
H1321	H132	0.374000	0.139400	0.201800
C1671	C167	0.308100	0.099800	0.493000
H1331	H133	0.300900	0.128100	0.498500
H1341	H134	0.322100	0.091400	0.555300
H1351	H135	0.283700	0.083800	0.484500
C1681	C168	0.339630	0.020030	0.445200
C1691	C169	0.360450	0.015040	0.536400
C1701	C170	0.353330	0.981630	0.597100
C1711	C171	0.325380	0.953210	0.566700
H1361	H136	0.320500	0.930400	0.608100
C1721	C172	0.304550	0.958210	0.475500
C1731	C173	0.311680	0.991620	0.414700
C1741	C174	0.286300	0.002100	0.318800
H1371	H137	0.267700	0.980100	0.304400
H1381	H138	0.304100	0.005900	0.259900
H1391	H139	0.271200	0.026700	0.331500
C1751	C175	0.276430	0.925220	0.439400
C1761	C176	0.247440	0.909870	0.504800
H1401	H140	0.246000	0.918900	0.573700
C1771	C177	0.220480	0.881370	0.469400
C1781	C178	0.222520	0.868210	0.368700
H1411	H141	0.204100	0.848700	0.344500
C1791	C179	0.251510	0.883560	0.303200
C1801	C180	0.278470	0.912060	0.338600
H1421	H142	0.298300	0.922600	0.293900
C1811	C181	0.255500	0.873000	0.189600
C1821	C182	0.190000	0.864200	0.539700
C1831	C183	0.406500	0.071800	0.124900
C1841	C184	0.448500	0.055300	0.153000
H1431	H143	0.463800	0.050400	0.090200
H1441	H144	0.445600	0.030200	0.190900
H1451	H145	0.462700	0.074900	0.195500
C1851	C185	0.385300	0.041400	0.055600
H1461	H146	0.401400	0.037000	0.993900
H1471	H147	0.358900	0.051800	0.036300
H1481	H148	0.382000	0.016100	0.092400
C1861	C186	0.413000	0.109200	0.063600
H1491	H149	0.428500	0.102800	0.002100
H1501	H150	0.427600	0.128800	0.105000
H1511	H151	0.387000	0.120400	0.043500
C1871	C187	0.375300	0.976500	0.703500
C1881	C188	0.420400	0.974300	0.689000
H1521	H152	0.433400	0.971300	0.755800
H1531	H153	0.429800	0.998900	0.656200
H1541	H154	0.427000	0.951300	0.645700
C1891	C189	0.364400	0.012700	0.773100
H1551	H155	0.377800	0.009900	0.839400
H1561	H156	0.335300	0.013500	0.783600
H1571	H157	0.373100	0.037600	0.740300
C1901	C190	0.363600	0.938600	0.756800
H1581	H158	0.377700	0.936800	0.822400
H1591	H159	0.370700	0.915600	0.713900
H1601	H160	0.334700	0.938600	0.769100
Mn61	Mn6	0.723200	0.656240	0.753030
O511	O51	0.750160	0.776620	0.658000
O521	O52	0.739810	0.716920	0.735300
O531	O53	0.663510	0.717140	0.071100
O541	O54	0.650120	0.775590	0.137700
O551	O55	0.614000	0.989350	0.771600
O561	O56	0.611780	0.957040	0.064800
O571	O57	0.811880	0.125820	0.130900
O581	O58	0.835600	0.162440	0.998600
O591	O59	0.773600	0.149380	0.657800
O601	O60	0.717900	0.114500	0.637100
C1911	C191	0.733200	0.754200	0.727000
C1921	C192	0.705100	0.774310	0.799900
C1931	C193	0.694970	0.755330	0.891000
H1611	H161	0.703900	0.728800	0.903700
C1941	C194	0.671830	0.775180	0.963300
C1951	C195	0.658810	0.814010	0.944700
H1621	H162	0.643000	0.827600	0.994100
C1961	C196	0.668940	0.832990	0.853600
C1971	C197	0.692080	0.813150	0.781200
H1631	H163	0.699000	0.826100	0.719000
C1981	C198	0.660200	0.754900	0.058700
C1991	C199	0.655180	0.875020	0.833800
C2001	C200	0.664340	0.906380	0.899600
C2011	C201	0.650620	0.944780	0.878500
C2021	C202	0.627730	0.951810	0.791500
C2031	C203	0.618570	0.920450	0.725600
C2041	C204	0.632300	0.882060	0.746800
H1641	H164	0.626000	0.860600	0.701800
C2051	C205	0.691900	0.900200	0.993000
H1651	H165	0.699100	0.871900	0.998500
H1661	H166	0.677900	0.908600	0.055300
H1671	H167	0.716300	0.916200	0.984500
C2061	C206	0.660370	0.979970	0.945200
C2071	C207	0.639550	0.984960	0.036400
C2081	C208	0.646670	0.018370	0.097100
C2091	C209	0.674620	0.046790	0.066700
H1681	H168	0.679500	0.069600	0.108100
C2101	C210	0.695450	0.041790	0.975500
C2111	C211	0.688320	0.008380	0.914700
C2121	C212	0.713700	0.997900	0.818800
H1691	H169	0.732300	0.019900	0.804400
H1701	H170	0.695900	0.994100	0.759900
H1711	H171	0.728800	0.973300	0.831500
C2131	C213	0.723570	0.074780	0.939400
C2141	C214	0.752560	0.090130	0.004800
H1721	H172	0.754000	0.081100	0.073700
C2151	C215	0.779520	0.118630	0.969400
C2161	C216	0.777480	0.131790	0.868700
H1731	H173	0.795900	0.151300	0.844500
C2171	C217	0.748490	0.116440	0.803200
C2181	C218	0.721530	0.087940	0.838600
H1741	H174	0.701700	0.077400	0.793900
C2191	C219	0.744500	0.127000	0.689600
C2201	C220	0.810000	0.135800	0.039700
C2211	C221	0.593500	0.928200	0.624900
C2221	C222	0.551500	0.944700	0.653000
H1751	H175	0.536200	0.949600	0.590200
H1761	H176	0.554400	0.969800	0.690900
H1771	H177	0.537300	0.925100	0.695500
C2231	C223	0.614700	0.958600	0.555600
H1781	H178	0.598600	0.963000	0.493900
H1791	H179	0.641100	0.948200	0.536300
H1801	H180	0.618000	0.983900	0.592400
C2241	C224	0.587000	0.890800	0.563600
H1811	H181	0.571500	0.897200	0.502100
H1821	H182	0.572400	0.871200	0.605000
H1831	H183	0.613000	0.879600	0.543500
C2251	C225	0.624700	0.023500	0.203500
C2261	C226	0.579600	0.025700	0.189000
H1841	H184	0.566600	0.028700	0.255800
H1851	H185	0.570200	0.001100	0.156200
H1861	H186	0.573000	0.048700	0.145700
C2271	C227	0.635600	0.987300	0.273100
H1871	H187	0.622200	0.990100	0.339400
H1881	H188	0.664700	0.986500	0.283600
H1891	H189	0.626900	0.962400	0.240300
C2281	C228	0.636400	0.061400	0.256800
H1901	H190	0.622300	0.063200	0.322400
H1911	H191	0.629300	0.084400	0.213900
H1921	H192	0.665300	0.061400	0.269100
Mn71	Mn7	0.843760	0.223200	0.003030
O611	O61	0.723380	0.250160	0.908000
O621	O62	0.783080	0.239810	0.985300
O631	O63	0.782860	0.163510	0.321100
O641	O64	0.724410	0.150120	0.387700
O651	O65	0.510650	0.114000	0.021600
O661	O66	0.542960	0.111780	0.314800
O671	O67	0.374180	0.311880	0.380900
O681	O68	0.337560	0.335600	0.248600
O691	O69	0.350620	0.273600	0.907800
O701	O70	0.385500	0.217900	0.887100
C2291	C229	0.745800	0.233200	0.977000
C2301	C230	0.725690	0.205100	0.049900
C2311	C231	0.744670	0.194970	0.141000
H1931	H193	0.771200	0.203900	0.153700
C2321	C232	0.724820	0.171830	0.213300
C2331	C233	0.685990	0.158810	0.194700
H1941	H194	0.672400	0.143000	0.244100
C2341	C234	0.667010	0.168940	0.103600
C2351	C235	0.686850	0.192080	0.031200
H1951	H195	0.673900	0.199000	0.969000
C2361	C236	0.745100	0.160200	0.308700
C2371	C237	0.624980	0.155180	0.083800
C2381	C238	0.593620	0.164340	0.149600
C2391	C239	0.555220	0.150620	0.128500
C2401	C240	0.548190	0.127730	0.041500
C2411	C241	0.579550	0.118570	0.975600
C2421	C242	0.617940	0.132300	0.996800
H1961	H196	0.639400	0.126000	0.951800
C2431	C243	0.599800	0.191900	0.243000
H1971	H197	0.628100	0.199100	0.248500
H1981	H198	0.591400	0.177900	0.305300
H1991	H199	0.583800	0.216300	0.234500
C2441	C244	0.520030	0.160370	0.195200
C2451	C245	0.515040	0.139550	0.286400
C2461	C246	0.481630	0.146670	0.347100
C2471	C247	0.453210	0.174620	0.316700
H2001	H200	0.430400	0.179500	0.358100
C2481	C248	0.458210	0.195450	0.225500
C2491	C249	0.491620	0.188320	0.164700
C2501	C250	0.502100	0.213700	0.068800
H2011	H201	0.480100	0.232300	0.054400
H2021	H202	0.505900	0.195900	0.009900
H2031	H203	0.526700	0.228800	0.081500
C2511	C251	0.425220	0.223570	0.189400
C2521	C252	0.409870	0.252560	0.254800
H2041	H204	0.418900	0.254000	0.323700
C2531	C253	0.381370	0.279520	0.219400
C2541	C254	0.368210	0.277480	0.118700
H2051	H205	0.348700	0.295900	0.094500
C2551	C255	0.383560	0.248490	0.053200
C2561	C256	0.412060	0.221530	0.088600
H2061	H206	0.422600	0.201700	0.043900
C2571	C257	0.373000	0.244500	0.939600
C2581	C258	0.364200	0.310000	0.289700
C2591	C259	0.571800	0.093500	0.874900
C2601	C260	0.555300	0.051500	0.903000
H2071	H207	0.550400	0.036200	0.840200
H2081	H208	0.530200	0.054400	0.940900
H2091	H209	0.574900	0.037300	0.945500
C2611	C261	0.541400	0.114700	0.805600
H2101	H210	0.537000	0.098600	0.743900
H2111	H211	0.551800	0.141100	0.786300
H2121	H212	0.516100	0.118000	0.842400
C2621	C262	0.609200	0.087000	0.813600
H2131	H213	0.602800	0.071500	0.752100
H2141	H214	0.628800	0.072400	0.855000
H2151	H215	0.620400	0.113000	0.793500
C2631	C263	0.476500	0.124700	0.453500
C2641	C264	0.474300	0.079600	0.439000
H2161	H216	0.471300	0.066600	0.505800
H2171	H217	0.498900	0.070200	0.406200
H2181	H218	0.451300	0.073000	0.395700
C2651	C265	0.512700	0.135600	0.523100
H2191	H219	0.509900	0.122200	0.589400
H2201	H220	0.513500	0.164700	0.533600
H2211	H221	0.537600	0.126900	0.490300
C2661	C266	0.438600	0.136400	0.506800
H2221	H222	0.436800	0.122300	0.572400
H2231	H223	0.415600	0.129300	0.463900
H2241	H224	0.438600	0.165300	0.519100
Mn81	Mn8	0.156240	0.776800	0.503030
O711	O71	0.276620	0.749840	0.408000
O721	O72	0.216920	0.760190	0.485300
O731	O73	0.217140	0.836490	0.821100
O741	O74	0.275590	0.849880	0.887700
O751	O75	0.489350	0.886000	0.521600
O761	O76	0.457040	0.888220	0.814800
O771	O77	0.625820	0.688120	0.880900
O781	O78	0.662440	0.664400	0.748600
O791	O79	0.649380	0.726400	0.407800
O801	O80	0.614500	0.782100	0.387100
C2671	C267	0.254200	0.766800	0.477000
C2681	C268	0.274310	0.794900	0.549900
C2691	C269	0.255330	0.805030	0.641000
H2251	H225	0.228800	0.796100	0.653700
C2701	C270	0.275180	0.828170	0.713300
C2711	C271	0.314010	0.841190	0.694700
H2261	H226	0.327600	0.857000	0.744100
C2721	C272	0.332990	0.831060	0.603600
C2731	C273	0.313150	0.807920	0.531200
H2271	H227	0.326100	0.801000	0.469000
C2741	C274	0.254900	0.839800	0.808700
C2751	C275	0.375020	0.844820	0.583800
C2761	C276	0.406380	0.835660	0.649600
C2771	C277	0.444780	0.849380	0.628500
C2781	C278	0.451810	0.872270	0.541500
C2791	C279	0.420450	0.881430	0.475600
C2801	C280	0.382060	0.867700	0.496800
H2281	H228	0.360600	0.874000	0.451800
C2811	C281	0.400200	0.808100	0.743000
H2291	H229	0.371900	0.800900	0.748500
H2301	H230	0.408600	0.822100	0.805300
H2311	H231	0.416200	0.783700	0.734500
C2821	C282	0.479970	0.839630	0.695200
C2831	C283	0.484960	0.860450	0.786400
C2841	C284	0.518370	0.853330	0.847100
C2851	C285	0.546790	0.825380	0.816700
H2321	H232	0.569600	0.820500	0.858100
C2861	C286	0.541790	0.804550	0.725500
C2871	C287	0.508380	0.811680	0.664700
C2881	C288	0.497900	0.786300	0.568800
H2331	H233	0.519900	0.767700	0.554400
H2341	H234	0.494100	0.804100	0.509900
H2351	H235	0.473300	0.771200	0.581500
C2891	C289	0.574780	0.776430	0.689400
C2901	C290	0.590130	0.747440	0.754800
H2361	H236	0.581100	0.746000	0.823700
C2911	C291	0.618630	0.720480	0.719400
C2921	C292	0.631790	0.722520	0.618700
H2371	H237	0.651300	0.704100	0.594500
C2931	C293	0.616440	0.751510	0.553200
C2941	C294	0.587940	0.778470	0.588600
H2381	H238	0.577400	0.798300	0.543900
C2951	C295	0.627000	0.755500	0.439600
C2961	C296	0.635800	0.690000	0.789700
C2971	C297	0.428200	0.906500	0.374900
C2981	C298	0.444700	0.948500	0.403000
H2391	H239	0.449600	0.963800	0.340200
H2401	H240	0.469800	0.945600	0.440900
H2411	H241	0.425100	0.962700	0.445500
C2991	C299	0.458600	0.885300	0.305600
H2421	H242	0.463000	0.901400	0.243900
H2431	H243	0.448200	0.858900	0.286300
H2441	H244	0.483900	0.882000	0.342400
C3001	C300	0.390800	0.913000	0.313600
H2451	H245	0.397200	0.928500	0.252100
H2461	H246	0.371200	0.927600	0.355000
H2471	H247	0.379600	0.887000	0.293500
C3011	C301	0.523500	0.875300	0.953500
C3021	C302	0.525700	0.920400	0.939000
H2481	H248	0.528700	0.933400	0.005800
H2491	H249	0.501100	0.929800	0.906200
H2501	H250	0.548700	0.927000	0.895700
C3031	C303	0.487300	0.864400	0.023100
H2511	H251	0.490100	0.877800	0.089400
H2521	H252	0.486500	0.835300	0.033600
H2531	H253	0.462400	0.873100	0.990300
C3041	C304	0.561400	0.863600	0.006800
H2541	H254	0.563200	0.877700	0.072400
H2551	H255	0.584400	0.870700	0.963900
H2561	H256	0.561400	0.834700	0.019100
Mn91	Mn9	0.266590	0.733410	0.250000
Mn101	Mn10	0.733410	0.266590	0.750000
Mn111	Mn11	0.766590	0.766590	0.500000
Mn121	Mn12	0.233410	0.233410	0.000000
Mn131	Mn13	0.157250	0.842750	0.750000
Mn141	Mn14	0.842750	0.157250	0.250000
Mn151	Mn15	0.657250	0.657250	0.000000
Mn161	Mn16	0.342750	0.342750	0.500000
