data_WOMFIO_charged_PM
_symmetry_space_group_name_H-M	'P1'
_cell_length_a	10.052300
_cell_length_b	14.329500
_cell_length_c	14.329500
_cell_angle_alpha	120.000000
_cell_angle_beta	90.000000
_cell_angle_gamma	90.000000
_symmetry_Int_Tables_number 1

loop_
_symmetry_equiv_pos_as_xyz
'x,y,z'

loop_
_atom_site_label
_atom_site_type_symbol
_atom_site_fract_x
_atom_site_fract_y
_atom_site_fract_z
Mn11	Mn1	0.604280	0.339600	0.874830
Mn21	Mn2	0.270950	0.535230	0.660400
Mn31	Mn3	0.937610	0.125170	0.464770
Mn41	Mn4	0.104280	0.660400	0.125170
Mn51	Mn5	0.770950	0.464770	0.339600
Mn61	Mn6	0.437610	0.874830	0.535230
C11	C1	0.801800	0.220300	0.681300
C21	C2	0.714700	0.128500	0.609400
C31	C3	0.604100	0.079300	0.623400
C41	C4	0.514200	0.097300	0.714200
C51	C5	0.468470	0.461000	0.779700
C61	C6	0.381370	0.480900	0.871500
C71	C7	0.270770	0.544100	0.920700
C81	C8	0.180870	0.616900	0.902700
C91	C9	0.135130	0.318700	0.539000
C101	C10	0.048030	0.390600	0.519100
C111	C11	0.937430	0.376600	0.455900
C121	C12	0.847530	0.285800	0.383100
C131	C13	0.301800	0.779700	0.318700
C141	C14	0.214700	0.871500	0.390600
C151	C15	0.104100	0.920700	0.376600
C161	C16	0.014200	0.902700	0.285800
C171	C17	0.968470	0.539000	0.220300
C181	C18	0.881370	0.519100	0.128500
C191	C19	0.770770	0.455900	0.079300
C201	C20	0.680870	0.383100	0.097300
C211	C21	0.635130	0.681300	0.461000
C221	C22	0.548030	0.609400	0.480900
C231	C23	0.437430	0.623400	0.544100
C241	C24	0.347530	0.714200	0.616900
N11	N1	0.750000	0.070300	0.505000
N21	N2	0.666200	0.988200	0.456300
N31	N3	0.577800	0.991700	0.526300
N41	N4	0.416670	0.434700	0.929700
N51	N5	0.332870	0.468100	0.011800
N61	N6	0.244470	0.534600	0.008300
N71	N7	0.083330	0.495000	0.565300
N81	N8	0.999530	0.543700	0.531900
N91	N9	0.911130	0.473700	0.465400
N101	N10	0.250000	0.929700	0.495000
N111	N11	0.166200	0.011800	0.543700
N121	N12	0.077800	0.008300	0.473700
N131	N13	0.916670	0.565300	0.070300
N141	N14	0.832870	0.531900	0.988200
N151	N15	0.744470	0.465400	0.991700
N161	N16	0.583330	0.505000	0.434700
N171	N17	0.499530	0.456300	0.468100
N181	N18	0.411130	0.526300	0.534600
O11	O1	0.896900	0.239900	0.636200
O21	O2	0.781600	0.271600	0.781500
O31	O3	0.508900	0.187500	0.797500
O41	O4	0.443200	0.018500	0.697000
O51	O5	0.563570	0.396300	0.760100
O61	O6	0.448270	0.509900	0.728400
O71	O7	0.175570	0.610000	0.812500
O81	O8	0.109870	0.678500	0.981500
O91	O9	0.230230	0.363800	0.603700
O101	O10	0.114930	0.218500	0.490100
O111	O11	0.842230	0.202500	0.390000
O121	O12	0.776530	0.303000	0.321500
O131	O13	0.396900	0.760100	0.363800
O141	O14	0.281600	0.728400	0.218500
O151	O15	0.008900	0.812500	0.202500
O161	O16	0.943200	0.981500	0.303000
O171	O17	0.063570	0.603700	0.239900
O181	O18	0.948270	0.490100	0.271600
O191	O19	0.675570	0.390000	0.187500
O201	O20	0.609870	0.321500	0.018500
O211	O21	0.730230	0.636200	0.396300
O221	O22	0.614930	0.781500	0.509900
O231	O23	0.342230	0.797500	0.610000
O241	O24	0.276530	0.697000	0.678500
H11	H1	0.139000	0.758100	0.506500
H21	H2	0.069600	0.668900	0.505200
H31	H3	0.082500	0.683200	0.412300
H41	H4	0.995900	0.762400	0.494800
N191	N19	0.064700	0.717800	0.483400
H51	H5	0.805670	0.748400	0.241900
H61	H6	0.736270	0.836300	0.331100
H71	H7	0.749170	0.729100	0.316800
H81	H8	0.662570	0.732400	0.237600
N201	N20	0.731370	0.765600	0.282200
H91	H9	0.472330	0.493500	0.251600
H101	H10	0.402930	0.494800	0.163700
H111	H11	0.415830	0.587700	0.270900
H121	H12	0.329230	0.505200	0.267600
N211	N21	0.398030	0.516600	0.234400
H131	H13	0.639000	0.241900	0.493500
H141	H14	0.569600	0.331100	0.494800
H151	H15	0.582500	0.316800	0.587700
H161	H16	0.495900	0.237600	0.505200
N221	N22	0.564700	0.282200	0.516600
H171	H17	0.305670	0.251600	0.758100
H181	H18	0.236270	0.163700	0.668900
H191	H19	0.249170	0.270900	0.683200
H201	H20	0.162570	0.267600	0.762400
N231	N23	0.231370	0.234400	0.717800
H211	H21	0.972330	0.506500	0.748400
H221	H22	0.902930	0.505200	0.836300
H231	H23	0.915830	0.412300	0.729100
H241	H24	0.829230	0.494800	0.732400
N241	N24	0.898030	0.483400	0.765600
