data_WONRUM02_clean_PM
_symmetry_space_group_name_H-M	'P1'
_cell_length_a	5.079400
_cell_length_b	15.215400
_cell_length_c	16.360400
_cell_angle_alpha	90.000000
_cell_angle_beta	95.696000
_cell_angle_gamma	90.000000
_symmetry_Int_Tables_number 1

loop_
_symmetry_equiv_pos_as_xyz
'x,y,z'

loop_
_atom_site_label
_atom_site_type_symbol
_atom_site_fract_x
_atom_site_fract_y
_atom_site_fract_z
Co11	Co1	0.345310	0.196830	0.081500
Co21	Co2	0.965170	0.322920	0.216330
Co31	Co3	0.991540	0.928920	0.180050
P11	P1	0.414770	0.399320	0.130060
P21	P2	0.924880	0.130340	0.162250
P31	P3	0.525250	0.886220	0.087840
O11	O1	0.307200	0.386240	0.216200
O21	O2	0.292600	0.326270	0.073510
O31	O3	0.716300	0.389900	0.142930
O41	O4	0.333500	0.488000	0.096070
O51	O5	0.030700	0.114640	0.077570
O61	O6	0.967500	0.049940	0.217350
O71	O7	0.101900	0.205430	0.201060
O81	O8	0.637400	0.158300	0.157900
O91	O9	0.244800	0.920960	0.094950
O101	O10	0.652900	0.854680	0.174650
O111	O11	0.522100	0.809170	0.029080
O121	O12	0.710600	0.959770	0.066870
Co41	Co4	0.154690	0.696830	0.418500
Co51	Co5	0.534830	0.822920	0.283670
Co61	Co6	0.508460	0.428920	0.319950
P41	P4	0.085230	0.899320	0.369940
P51	P5	0.575120	0.630340	0.337750
P61	P6	0.974750	0.386220	0.412160
O131	O13	0.192800	0.886240	0.283800
O141	O14	0.207400	0.826270	0.426490
O151	O15	0.783700	0.889900	0.357070
O161	O16	0.166500	0.988000	0.403930
O171	O17	0.469300	0.614640	0.422430
O181	O18	0.532500	0.549940	0.282650
O191	O19	0.398100	0.705430	0.298940
O201	O20	0.862600	0.658300	0.342100
O211	O21	0.255200	0.420960	0.405050
O221	O22	0.847100	0.354680	0.325350
O231	O23	0.977900	0.309170	0.470920
O241	O24	0.789400	0.459770	0.433130
Co71	Co7	0.654690	0.803170	0.918500
Co81	Co8	0.034830	0.677080	0.783670
Co91	Co9	0.008460	0.071080	0.819950
P71	P7	0.585230	0.600680	0.869940
P81	P8	0.075120	0.869660	0.837750
P91	P9	0.474750	0.113780	0.912160
O251	O25	0.692800	0.613760	0.783800
O261	O26	0.707400	0.673730	0.926490
O271	O27	0.283700	0.610100	0.857070
O281	O28	0.666500	0.512000	0.903930
O291	O29	0.969300	0.885360	0.922430
O301	O30	0.032500	0.950060	0.782650
O311	O31	0.898100	0.794570	0.798940
O321	O32	0.362600	0.841700	0.842100
O331	O33	0.755200	0.079040	0.905050
O341	O34	0.347100	0.145320	0.825350
O351	O35	0.477900	0.190830	0.970920
O361	O36	0.289400	0.040230	0.933130
Co101	Co10	0.845310	0.303170	0.581500
Co111	Co11	0.465170	0.177080	0.716330
Co121	Co12	0.491540	0.571080	0.680050
P101	P10	0.914770	0.100680	0.630060
P111	P11	0.424880	0.369660	0.662250
P121	P12	0.025250	0.613780	0.587840
O371	O37	0.807200	0.113760	0.716200
O381	O38	0.792600	0.173730	0.573510
O391	O39	0.216300	0.110100	0.642930
O401	O40	0.833500	0.012000	0.596070
O411	O41	0.530700	0.385360	0.577570
O421	O42	0.467500	0.450060	0.717350
O431	O43	0.601900	0.294570	0.701060
O441	O44	0.137400	0.341700	0.657900
O451	O45	0.744800	0.579040	0.594950
O461	O46	0.152900	0.645320	0.674650
O471	O47	0.022100	0.690830	0.529080
O481	O48	0.210600	0.540230	0.566870
Co131	Co13	0.000000	0.000000	0.000000
Co141	Co14	0.500000	0.500000	0.500000
