data_WOPHEQ_clean_PM
_symmetry_space_group_name_H-M	'P1'
_cell_length_a	10.079000
_cell_length_b	14.817000
_cell_length_c	20.165000
_cell_angle_alpha	98.577000
_cell_angle_beta	103.941000
_cell_angle_gamma	91.757000
_symmetry_Int_Tables_number 1

loop_
_symmetry_equiv_pos_as_xyz
'x,y,z'

loop_
_atom_site_label
_atom_site_type_symbol
_atom_site_fract_x
_atom_site_fract_y
_atom_site_fract_z
N11	N1	0.876100	0.228600	0.349300
C11	C1	0.765500	0.179900	0.296100
H11	H1	0.696700	0.212700	0.273200
C21	C2	0.757000	0.083700	0.277400
H21	H2	0.695600	0.052500	0.238000
C31	C3	0.849500	0.039600	0.323300
N21	N2	0.149200	0.192300	0.202400
C41	C4	0.251600	0.164400	0.248800
H31	H3	0.320500	0.207800	0.274400
Co11	Co1	0.892820	0.374400	0.346930
Co21	Co2	0.138890	0.338320	0.206100
O11	O1	0.090300	0.378400	0.401300
O21	O2	0.940800	0.323100	0.149800
O31	O3	0.812600	0.398600	0.439800
O41	O4	0.353600	0.345000	0.212000
O51	O5	0.676600	0.378800	0.337000
O61	O6	0.217200	0.334400	0.108600
O71	O7	0.170300	0.344000	0.308800
N31	N3	0.136000	0.483400	0.216800
C51	C5	0.588500	0.338800	0.161300
H41	H4	0.600300	0.343900	0.208900
N41	N4	0.911000	0.518700	0.344700
C61	C6	0.442400	0.377100	0.388600
H51	H5	0.429400	0.373800	0.341100
C71	C7	0.329900	0.373000	0.418100
C81	C8	0.573500	0.386100	0.432300
O81	O8	0.513000	0.378300	0.599800
C91	C9	0.186400	0.364700	0.372600
C101	C10	0.843900	0.333000	0.179200
C111	C11	0.703900	0.332700	0.132600
O91	O9	0.525300	0.332400	0.950100
O101	O10	0.857800	0.341200	0.242200
C121	C12	0.695400	0.388200	0.402200
C131	C13	0.555900	0.332400	0.019800
C141	C14	0.349700	0.375100	0.489000
H61	H6	0.274600	0.372600	0.508000
C151	C15	0.593100	0.388000	0.502000
H71	H7	0.681800	0.394000	0.530200
C161	C16	0.684500	0.329000	0.061600
H81	H8	0.759400	0.324100	0.042200
C171	C17	0.459500	0.337100	0.118800
C181	C18	0.635400	0.330900	0.916600
H91	H9	0.680800	0.274400	0.920000
H101	H10	0.702200	0.381700	0.938300
C191	C19	0.335200	0.340100	0.148200
C201	C20	0.075600	0.527500	0.166800
H111	H11	0.027700	0.493200	0.124900
C211	C21	0.156600	0.773900	0.251100
C221	C22	0.869200	0.792600	0.304300
N51	N5	0.814600	0.898900	0.243000
C231	C23	0.482200	0.381000	0.531400
C241	C24	0.161100	0.011000	0.224200
C251	C25	0.201000	0.534900	0.277400
H121	H12	0.243300	0.505900	0.313900
C261	C26	0.163800	0.919700	0.245400
C271	C27	0.575800	0.338300	0.842400
C281	C28	0.462000	0.354200	0.704300
C291	C29	0.535900	0.260800	0.794200
H131	H13	0.545300	0.203400	0.807600
C301	C30	0.556800	0.424000	0.822900
H141	H14	0.583700	0.476500	0.855800
C311	C31	0.440900	0.333100	0.047100
H151	H15	0.353300	0.331000	0.018200
C321	C32	0.940200	0.078800	0.370800
H161	H16	0.004900	0.046200	0.396900
C331	C33	0.145500	0.674900	0.233300
N61	N6	0.831700	0.819100	0.250800
C341	C34	0.401500	0.362600	0.630800
H171	H17	0.347200	0.306900	0.606800
H181	H18	0.342700	0.413200	0.628200
C351	C35	0.480200	0.268200	0.723800
H191	H19	0.455800	0.215800	0.690700
C361	C36	0.207200	0.628400	0.287200
H201	H20	0.252600	0.661500	0.330000
C371	C37	0.053500	0.034800	0.172700
H211	H21	0.986200	0.992100	0.144600
N71	N7	0.189400	0.817200	0.314000
C381	C38	0.951100	0.688200	0.383000
H221	H22	0.983900	0.739500	0.416500
C391	C39	0.261900	0.076500	0.261200
H231	H23	0.335900	0.061200	0.294100
C401	C40	0.845700	0.934600	0.305100
C411	C41	0.884400	0.691800	0.318000
C421	C42	0.969000	0.578300	0.397700
H241	H24	0.015900	0.563100	0.439800
N81	N8	0.193500	0.908600	0.310500
C431	C43	0.055400	0.128500	0.166900
H251	H25	0.983000	0.146800	0.134700
C441	C44	0.079400	0.622200	0.173100
H261	H26	0.036200	0.649400	0.135700
C451	C45	0.945000	0.185900	0.387000
H271	H27	0.004700	0.216400	0.427500
C461	C46	0.498100	0.431400	0.754700
H281	H28	0.482500	0.489000	0.742500
N91	N9	0.139400	0.837200	0.205800
N101	N10	0.889700	0.874000	0.350100
N111	N11	0.114200	0.816900	0.134500
H291	H29	0.113100	0.860300	0.110400
H301	H30	0.099700	0.760900	0.114200
C471	C47	0.834700	0.629000	0.269200
H311	H31	0.789500	0.639800	0.225500
C481	C48	0.850800	0.547800	0.284200
H321	H32	0.815100	0.500900	0.247400
N121	N12	0.123900	0.771400	0.650700
C491	C49	0.234500	0.820100	0.703900
H331	H33	0.303300	0.787300	0.726800
C501	C50	0.243000	0.916300	0.722600
H341	H34	0.304400	0.947500	0.762000
C511	C51	0.150500	0.960400	0.676700
N131	N13	0.850800	0.807700	0.797600
C521	C52	0.748400	0.835600	0.751200
H351	H35	0.679500	0.792200	0.725600
Co31	Co3	0.107180	0.625600	0.653070
Co41	Co4	0.861110	0.661680	0.793900
O111	O11	0.909700	0.621600	0.598700
O121	O12	0.059200	0.676900	0.850200
O131	O13	0.187400	0.601400	0.560200
O141	O14	0.646400	0.655000	0.788000
O151	O15	0.323400	0.621200	0.663000
O161	O16	0.782800	0.665600	0.891400
O171	O17	0.829700	0.656000	0.691200
N141	N14	0.864000	0.516600	0.783200
C531	C53	0.411500	0.661200	0.838700
H361	H36	0.399700	0.656100	0.791100
N151	N15	0.089000	0.481300	0.655300
C541	C54	0.557600	0.622900	0.611400
H371	H37	0.570600	0.626200	0.658900
C551	C55	0.670100	0.627000	0.581900
C561	C56	0.426500	0.613900	0.567700
O181	O18	0.487000	0.621700	0.400200
C571	C57	0.813600	0.635300	0.627400
C581	C58	0.156100	0.667000	0.820800
C591	C59	0.296100	0.667300	0.867400
O191	O19	0.474700	0.667600	0.049900
O201	O20	0.142200	0.658800	0.757800
C601	C60	0.304600	0.611800	0.597800
C611	C61	0.444100	0.667600	0.980200
C621	C62	0.650300	0.624900	0.511000
H381	H38	0.725400	0.627400	0.492000
C631	C63	0.406900	0.612000	0.498000
H391	H39	0.318200	0.606000	0.469800
C641	C64	0.315500	0.671000	0.938400
H401	H40	0.240600	0.675900	0.957800
C651	C65	0.540500	0.662900	0.881200
C661	C66	0.364600	0.669100	0.083400
H411	H41	0.319200	0.725600	0.080000
H421	H42	0.297800	0.618300	0.061700
C671	C67	0.664800	0.659900	0.851800
C681	C68	0.924400	0.472500	0.833200
H431	H43	0.972300	0.506800	0.875100
C691	C69	0.843400	0.226100	0.748900
C701	C70	0.130800	0.207400	0.695700
N161	N16	0.185400	0.101100	0.757000
C711	C71	0.517800	0.619000	0.468600
C721	C72	0.838900	0.989000	0.775800
C731	C73	0.799000	0.465100	0.722600
H441	H44	0.756700	0.494100	0.686100
C741	C74	0.836200	0.080300	0.754600
C751	C75	0.424200	0.661700	0.157600
C761	C76	0.538000	0.645800	0.295700
C771	C77	0.464100	0.739200	0.205800
H451	H45	0.454700	0.796600	0.192400
C781	C78	0.443200	0.576000	0.177100
H461	H46	0.416300	0.523500	0.144200
C791	C79	0.559100	0.666900	0.952900
H471	H47	0.646700	0.669000	0.981800
C801	C80	0.059800	0.921200	0.629200
H481	H48	0.995100	0.953800	0.603100
C811	C81	0.854500	0.325100	0.766700
N171	N17	0.168300	0.180900	0.749200
C821	C82	0.598500	0.637400	0.369200
H491	H49	0.652800	0.693100	0.393200
H501	H50	0.657300	0.586800	0.371800
C831	C83	0.519800	0.731800	0.276200
H511	H51	0.544200	0.784200	0.309300
C841	C84	0.792800	0.371600	0.712800
H521	H52	0.747400	0.338500	0.670000
C851	C85	0.946500	0.965200	0.827300
H531	H53	0.013800	0.007900	0.855400
N181	N18	0.810600	0.182800	0.686000
C861	C86	0.048900	0.311800	0.617000
H541	H54	0.016100	0.260500	0.583500
C871	C87	0.738100	0.923500	0.738800
H551	H55	0.664100	0.938800	0.705900
C881	C88	0.154300	0.065400	0.694900
C891	C89	0.115600	0.308200	0.682000
C901	C90	0.031000	0.421700	0.602300
H561	H56	0.984100	0.436900	0.560200
N191	N19	0.806500	0.091400	0.689500
C911	C91	0.944600	0.871500	0.833100
H571	H57	0.017000	0.853200	0.865300
C921	C92	0.920600	0.377800	0.826900
H581	H58	0.963800	0.350600	0.864300
C931	C93	0.055000	0.814100	0.613000
H591	H59	0.995300	0.783600	0.572500
C941	C94	0.501900	0.568600	0.245300
H601	H60	0.517500	0.511000	0.257500
N201	N20	0.860600	0.162800	0.794200
N211	N21	0.110300	0.126000	0.649900
N221	N22	0.885800	0.183100	0.865500
H611	H61	0.886900	0.139700	0.889600
H621	H62	0.900300	0.239100	0.885800
C951	C95	0.165300	0.371000	0.730800
H631	H63	0.210500	0.360200	0.774500
C961	C96	0.149200	0.452200	0.715800
H641	H64	0.184900	0.499100	0.752600
