data_WOPHIU_clean_PM
_symmetry_space_group_name_H-M	'P1'
_cell_length_a	30.892000
_cell_length_b	14.751000
_cell_length_c	19.080000
_cell_angle_alpha	90.000000
_cell_angle_beta	111.552000
_cell_angle_gamma	90.000000
_symmetry_Int_Tables_number 1

loop_
_symmetry_equiv_pos_as_xyz
'x,y,z'

loop_
_atom_site_label
_atom_site_type_symbol
_atom_site_fract_x
_atom_site_fract_y
_atom_site_fract_z
C11	C1	0.435600	0.455700	0.275100
C21	C2	0.400400	0.474900	0.309800
C31	C3	0.353500	0.478500	0.265300
H11	H1	0.343400	0.467100	0.213900
C41	C4	0.321900	0.499400	0.299100
C51	C5	0.337000	0.519400	0.376200
H21	H2	0.315400	0.534700	0.397700
C61	C6	0.383500	0.516400	0.420300
C71	C7	0.399400	0.541900	0.501900
C81	C8	0.415200	0.493000	0.385900
H31	H3	0.446800	0.489600	0.415100
C91	C9	0.257300	0.486700	0.182100
H41	H4	0.267700	0.427500	0.172600
H51	H5	0.269000	0.532000	0.156700
C101	C10	0.205400	0.489700	0.153400
C111	C11	0.182000	0.503700	0.077100
H61	H6	0.198700	0.513000	0.045900
C121	C12	0.133900	0.503900	0.046900
H71	H7	0.118800	0.513400	0.995500
C131	C13	0.108900	0.491300	0.088500
H81	H8	0.076600	0.492200	0.067000
C141	C14	0.131400	0.476600	0.165300
C151	C15	0.180100	0.479100	0.196800
H91	H9	0.195100	0.473400	0.248700
C161	C16	0.102900	0.452500	0.220200
H101	H10	0.074700	0.419200	0.192900
H111	H11	0.122000	0.416400	0.263000
C171	C17	0.070600	0.532000	0.290100
C181	C18	0.056300	0.456900	0.320000
H121	H12	0.061500	0.398700	0.306100
C191	C19	0.033700	0.469900	0.371800
C201	C20	0.020800	0.390300	0.407100
C211	C21	0.025300	0.556400	0.391000
H131	H13	0.010500	0.564900	0.425000
C221	C22	0.039200	0.631500	0.359300
C231	C23	0.031300	0.726200	0.377800
C241	C24	0.061700	0.617600	0.308100
H141	H14	0.070700	0.667100	0.286500
C251	C25	0.077400	0.775100	0.655900
H151	H15	0.052400	0.788700	0.670300
C261	C26	0.121300	0.781400	0.708200
H161	H16	0.125300	0.801300	0.756400
C271	C27	0.157900	0.760700	0.693300
C281	C28	0.151700	0.738700	0.617800
H171	H17	0.176800	0.727300	0.603400
C291	C29	0.105100	0.734900	0.565300
H181	H18	0.100300	0.721200	0.515400
C301	C30	0.202600	0.760200	0.759000
C311	C31	0.274600	0.754100	0.830100
C321	C32	0.328300	0.755400	0.865300
C331	C33	0.356500	0.782100	0.831800
H191	H19	0.344900	0.800400	0.781700
C341	C34	0.404800	0.782200	0.874200
H201	H20	0.424800	0.800700	0.850600
C351	C35	0.392400	0.736000	0.972200
H211	H21	0.403000	0.721700	0.023200
C361	C36	0.345500	0.731600	0.933800
H221	H22	0.326200	0.711200	0.958000
N11	N1	0.068600	0.749500	0.582900
N21	N2	0.204300	0.747800	0.825400
N31	N3	0.247900	0.741700	0.864200
N41	N4	0.246600	0.761300	0.760000
N51	N5	0.259200	0.785500	0.694100
H231	H23	0.287700	0.796400	0.700300
H241	H24	0.237900	0.788500	0.649800
N61	N6	0.422900	0.757700	0.945200
O11	O1	0.421920	0.449900	0.205100
O21	O2	0.476040	0.447000	0.317300
O31	O3	0.443430	0.542100	0.538300
O41	O4	0.371600	0.565100	0.529400
O51	O5	0.274160	0.504400	0.261000
O61	O6	0.093100	0.531300	0.242600
O71	O7	0.024400	0.311700	0.384600
O81	O8	0.007320	0.400500	0.461100
O91	O9	0.009100	0.742700	0.419100
O101	O10	0.048000	0.788000	0.348400
Zn11	Zn1	0.458160	0.419750	0.143930
Zn21	Zn2	0.995480	0.735490	0.513630
C371	C37	0.935600	0.955700	0.275100
C381	C38	0.900400	0.974900	0.309800
C391	C39	0.853500	0.978500	0.265300
H251	H25	0.843400	0.967100	0.213900
C401	C40	0.821900	0.999400	0.299100
C411	C41	0.837000	0.019400	0.376200
H261	H26	0.815400	0.034700	0.397700
C421	C42	0.883500	0.016400	0.420300
C431	C43	0.899400	0.041900	0.501900
C441	C44	0.915200	0.993000	0.385900
H271	H27	0.946800	0.989600	0.415100
C451	C45	0.757300	0.986700	0.182100
H281	H28	0.767700	0.927500	0.172600
H291	H29	0.769000	0.032000	0.156700
C461	C46	0.705400	0.989700	0.153400
C471	C47	0.682000	0.003700	0.077100
H301	H30	0.698700	0.013000	0.045900
C481	C48	0.633900	0.003900	0.046900
H311	H31	0.618800	0.013400	0.995500
C491	C49	0.608900	0.991300	0.088500
H321	H32	0.576600	0.992200	0.067000
C501	C50	0.631400	0.976600	0.165300
C511	C51	0.680100	0.979100	0.196800
H331	H33	0.695100	0.973400	0.248700
C521	C52	0.602900	0.952500	0.220200
H341	H34	0.574700	0.919200	0.192900
H351	H35	0.622000	0.916400	0.263000
C531	C53	0.570600	0.032000	0.290100
C541	C54	0.556300	0.956900	0.320000
H361	H36	0.561500	0.898700	0.306100
C551	C55	0.533700	0.969900	0.371800
C561	C56	0.520800	0.890300	0.407100
C571	C57	0.525300	0.056400	0.391000
H371	H37	0.510500	0.064900	0.425000
C581	C58	0.539200	0.131500	0.359300
C591	C59	0.531300	0.226200	0.377800
C601	C60	0.561700	0.117600	0.308100
H381	H38	0.570700	0.167100	0.286500
C611	C61	0.577400	0.275100	0.655900
H391	H39	0.552400	0.288700	0.670300
C621	C62	0.621300	0.281400	0.708200
H401	H40	0.625300	0.301300	0.756400
C631	C63	0.657900	0.260700	0.693300
C641	C64	0.651700	0.238700	0.617800
H411	H41	0.676800	0.227300	0.603400
C651	C65	0.605100	0.234900	0.565300
H421	H42	0.600300	0.221200	0.515400
C661	C66	0.702600	0.260200	0.759000
C671	C67	0.774600	0.254100	0.830100
C681	C68	0.828300	0.255400	0.865300
C691	C69	0.856500	0.282100	0.831800
H431	H43	0.844900	0.300400	0.781700
C701	C70	0.904800	0.282200	0.874200
H441	H44	0.924800	0.300700	0.850600
C711	C71	0.892400	0.236000	0.972200
H451	H45	0.903000	0.221700	0.023200
C721	C72	0.845500	0.231600	0.933800
H461	H46	0.826200	0.211200	0.958000
N71	N7	0.568600	0.249500	0.582900
N81	N8	0.704300	0.247800	0.825400
N91	N9	0.747900	0.241700	0.864200
N101	N10	0.746600	0.261300	0.760000
N111	N11	0.759200	0.285500	0.694100
H471	H47	0.787700	0.296400	0.700300
H481	H48	0.737900	0.288500	0.649800
N121	N12	0.922900	0.257700	0.945200
O111	O11	0.921920	0.949900	0.205100
O121	O12	0.976040	0.947000	0.317300
O131	O13	0.943430	0.042100	0.538300
O141	O14	0.871600	0.065100	0.529400
O151	O15	0.774160	0.004400	0.261000
O161	O16	0.593100	0.031300	0.242600
O171	O17	0.524400	0.811700	0.384600
O181	O18	0.507320	0.900500	0.461100
O191	O19	0.509100	0.242700	0.419100
O201	O20	0.548000	0.288000	0.348400
Zn31	Zn3	0.958160	0.919750	0.143930
Zn41	Zn4	0.495480	0.235490	0.513630
C731	C73	0.564400	0.455700	0.224900
C741	C74	0.599600	0.474900	0.190200
C751	C75	0.646500	0.478500	0.234700
H491	H49	0.656600	0.467100	0.286100
C761	C76	0.678100	0.499400	0.200900
C771	C77	0.663000	0.519400	0.123800
H501	H50	0.684600	0.534700	0.102300
C781	C78	0.616500	0.516400	0.079700
C791	C79	0.600600	0.541900	0.998100
C801	C80	0.584800	0.493000	0.114100
H511	H51	0.553200	0.489600	0.084900
C811	C81	0.742700	0.486700	0.317900
H521	H52	0.732300	0.427500	0.327400
H531	H53	0.731000	0.532000	0.343300
C821	C82	0.794600	0.489700	0.346600
C831	C83	0.818000	0.503700	0.422900
H541	H54	0.801300	0.513000	0.454100
C841	C84	0.866100	0.503900	0.453100
H551	H55	0.881200	0.513400	0.504500
C851	C85	0.891100	0.491300	0.411500
H561	H56	0.923400	0.492200	0.433000
C861	C86	0.868600	0.476600	0.334700
C871	C87	0.819900	0.479100	0.303200
H571	H57	0.804900	0.473400	0.251300
C881	C88	0.897100	0.452500	0.279800
H581	H58	0.925300	0.419200	0.307100
H591	H59	0.878000	0.416400	0.237000
C891	C89	0.929400	0.532000	0.209900
C901	C90	0.943700	0.456900	0.180000
H601	H60	0.938500	0.398700	0.193900
C911	C91	0.966300	0.469900	0.128200
C921	C92	0.979200	0.390300	0.092900
C931	C93	0.974700	0.556400	0.109000
H611	H61	0.989500	0.564900	0.075000
C941	C94	0.960800	0.631500	0.140700
C951	C95	0.968700	0.726200	0.122200
C961	C96	0.938300	0.617600	0.191900
H621	H62	0.929300	0.667100	0.213500
C971	C97	0.922600	0.775100	0.844100
H631	H63	0.947600	0.788700	0.829700
C981	C98	0.878700	0.781400	0.791800
H641	H64	0.874700	0.801300	0.743600
C991	C99	0.842100	0.760700	0.806700
C1001	C100	0.848300	0.738700	0.882200
H651	H65	0.823200	0.727300	0.896600
C1011	C101	0.894900	0.734900	0.934700
H661	H66	0.899700	0.721200	0.984600
C1021	C102	0.797400	0.760200	0.741000
C1031	C103	0.725400	0.754100	0.669900
C1041	C104	0.671700	0.755400	0.634700
C1051	C105	0.643500	0.782100	0.668200
H671	H67	0.655100	0.800400	0.718300
C1061	C106	0.595200	0.782200	0.625800
H681	H68	0.575200	0.800700	0.649400
C1071	C107	0.607600	0.736000	0.527800
H691	H69	0.597000	0.721700	0.476800
C1081	C108	0.654500	0.731600	0.566200
H701	H70	0.673800	0.711200	0.542000
N131	N13	0.931400	0.749500	0.917100
N141	N14	0.795700	0.747800	0.674600
N151	N15	0.752100	0.741700	0.635800
N161	N16	0.753400	0.761300	0.740000
N171	N17	0.740800	0.785500	0.805900
H711	H71	0.712300	0.796400	0.799700
H721	H72	0.762100	0.788500	0.850200
N181	N18	0.577100	0.757700	0.554800
O211	O21	0.578080	0.449900	0.294900
O221	O22	0.523960	0.447000	0.182700
O231	O23	0.556570	0.542100	0.961700
O241	O24	0.628400	0.565100	0.970600
O251	O25	0.725840	0.504400	0.239000
O261	O26	0.906900	0.531300	0.257400
O271	O27	0.975600	0.311700	0.115400
O281	O28	0.992680	0.400500	0.038900
O291	O29	0.990900	0.742700	0.080900
O301	O30	0.952000	0.788000	0.151600
Zn51	Zn5	0.541840	0.419750	0.356070
Zn61	Zn6	0.004520	0.735490	0.986370
C1091	C109	0.064400	0.955700	0.224900
C1101	C110	0.099600	0.974900	0.190200
C1111	C111	0.146500	0.978500	0.234700
H731	H73	0.156600	0.967100	0.286100
C1121	C112	0.178100	0.999400	0.200900
C1131	C113	0.163000	0.019400	0.123800
H741	H74	0.184600	0.034700	0.102300
C1141	C114	0.116500	0.016400	0.079700
C1151	C115	0.100600	0.041900	0.998100
C1161	C116	0.084800	0.993000	0.114100
H751	H75	0.053200	0.989600	0.084900
C1171	C117	0.242700	0.986700	0.317900
H761	H76	0.232300	0.927500	0.327400
H771	H77	0.231000	0.032000	0.343300
C1181	C118	0.294600	0.989700	0.346600
C1191	C119	0.318000	0.003700	0.422900
H781	H78	0.301300	0.013000	0.454100
C1201	C120	0.366100	0.003900	0.453100
H791	H79	0.381200	0.013400	0.504500
C1211	C121	0.391100	0.991300	0.411500
H801	H80	0.423400	0.992200	0.433000
C1221	C122	0.368600	0.976600	0.334700
C1231	C123	0.319900	0.979100	0.303200
H811	H81	0.304900	0.973400	0.251300
C1241	C124	0.397100	0.952500	0.279800
H821	H82	0.425300	0.919200	0.307100
H831	H83	0.378000	0.916400	0.237000
C1251	C125	0.429400	0.032000	0.209900
C1261	C126	0.443700	0.956900	0.180000
H841	H84	0.438500	0.898700	0.193900
C1271	C127	0.466300	0.969900	0.128200
C1281	C128	0.479200	0.890300	0.092900
C1291	C129	0.474700	0.056400	0.109000
H851	H85	0.489500	0.064900	0.075000
C1301	C130	0.460800	0.131500	0.140700
C1311	C131	0.468700	0.226200	0.122200
C1321	C132	0.438300	0.117600	0.191900
H861	H86	0.429300	0.167100	0.213500
C1331	C133	0.422600	0.275100	0.844100
H871	H87	0.447600	0.288700	0.829700
C1341	C134	0.378700	0.281400	0.791800
H881	H88	0.374700	0.301300	0.743600
C1351	C135	0.342100	0.260700	0.806700
C1361	C136	0.348300	0.238700	0.882200
H891	H89	0.323200	0.227300	0.896600
C1371	C137	0.394900	0.234900	0.934700
H901	H90	0.399700	0.221200	0.984600
C1381	C138	0.297400	0.260200	0.741000
C1391	C139	0.225400	0.254100	0.669900
C1401	C140	0.171700	0.255400	0.634700
C1411	C141	0.143500	0.282100	0.668200
H911	H91	0.155100	0.300400	0.718300
C1421	C142	0.095200	0.282200	0.625800
H921	H92	0.075200	0.300700	0.649400
C1431	C143	0.107600	0.236000	0.527800
H931	H93	0.097000	0.221700	0.476800
C1441	C144	0.154500	0.231600	0.566200
H941	H94	0.173800	0.211200	0.542000
N191	N19	0.431400	0.249500	0.917100
N201	N20	0.295700	0.247800	0.674600
N211	N21	0.252100	0.241700	0.635800
N221	N22	0.253400	0.261300	0.740000
N231	N23	0.240800	0.285500	0.805900
H951	H95	0.212300	0.296400	0.799700
H961	H96	0.262100	0.288500	0.850200
N241	N24	0.077100	0.257700	0.554800
O311	O31	0.078080	0.949900	0.294900
O321	O32	0.023960	0.947000	0.182700
O331	O33	0.056570	0.042100	0.961700
O341	O34	0.128400	0.065100	0.970600
O351	O35	0.225840	0.004400	0.239000
O361	O36	0.406900	0.031300	0.257400
O371	O37	0.475600	0.811700	0.115400
O381	O38	0.492680	0.900500	0.038900
O391	O39	0.490900	0.242700	0.080900
O401	O40	0.452000	0.288000	0.151600
Zn71	Zn7	0.041840	0.919750	0.356070
Zn81	Zn8	0.504520	0.235490	0.986370
C1451	C145	0.564400	0.544300	0.724900
C1461	C146	0.599600	0.525100	0.690200
C1471	C147	0.646500	0.521500	0.734700
H971	H97	0.656600	0.532900	0.786100
C1481	C148	0.678100	0.500600	0.700900
C1491	C149	0.663000	0.480600	0.623800
H981	H98	0.684600	0.465300	0.602300
C1501	C150	0.616500	0.483600	0.579700
C1511	C151	0.600600	0.458100	0.498100
C1521	C152	0.584800	0.507000	0.614100
H991	H99	0.553200	0.510400	0.584900
C1531	C153	0.742700	0.513300	0.817900
H1001	H100	0.732300	0.572500	0.827400
H1011	H101	0.731000	0.468000	0.843300
C1541	C154	0.794600	0.510300	0.846600
C1551	C155	0.818000	0.496300	0.922900
H1021	H102	0.801300	0.487000	0.954100
C1561	C156	0.866100	0.496100	0.953100
H1031	H103	0.881200	0.486600	0.004500
C1571	C157	0.891100	0.508700	0.911500
H1041	H104	0.923400	0.507800	0.933000
C1581	C158	0.868600	0.523400	0.834700
C1591	C159	0.819900	0.520900	0.803200
H1051	H105	0.804900	0.526600	0.751300
C1601	C160	0.897100	0.547500	0.779800
H1061	H106	0.925300	0.580800	0.807100
H1071	H107	0.878000	0.583600	0.737000
C1611	C161	0.929400	0.468000	0.709900
C1621	C162	0.943700	0.543100	0.680000
H1081	H108	0.938500	0.601300	0.693900
C1631	C163	0.966300	0.530100	0.628200
C1641	C164	0.979200	0.609700	0.592900
C1651	C165	0.974700	0.443600	0.609000
H1091	H109	0.989500	0.435100	0.575000
C1661	C166	0.960800	0.368500	0.640700
C1671	C167	0.968700	0.273800	0.622200
C1681	C168	0.938300	0.382400	0.691900
H1101	H110	0.929300	0.332900	0.713500
C1691	C169	0.922600	0.224900	0.344100
H1111	H111	0.947600	0.211300	0.329700
C1701	C170	0.878700	0.218600	0.291800
H1121	H112	0.874700	0.198700	0.243600
C1711	C171	0.842100	0.239300	0.306700
C1721	C172	0.848300	0.261300	0.382200
H1131	H113	0.823200	0.272700	0.396600
C1731	C173	0.894900	0.265100	0.434700
H1141	H114	0.899700	0.278800	0.484600
C1741	C174	0.797400	0.239800	0.241000
C1751	C175	0.725400	0.245900	0.169900
C1761	C176	0.671700	0.244600	0.134700
C1771	C177	0.643500	0.217900	0.168200
H1151	H115	0.655100	0.199600	0.218300
C1781	C178	0.595200	0.217800	0.125800
H1161	H116	0.575200	0.199300	0.149400
C1791	C179	0.607600	0.264000	0.027800
H1171	H117	0.597000	0.278300	0.976800
C1801	C180	0.654500	0.268400	0.066200
H1181	H118	0.673800	0.288800	0.042000
N251	N25	0.931400	0.250500	0.417100
N261	N26	0.795700	0.252200	0.174600
N271	N27	0.752100	0.258300	0.135800
N281	N28	0.753400	0.238700	0.240000
N291	N29	0.740800	0.214500	0.305900
H1191	H119	0.712300	0.203600	0.299700
H1201	H120	0.762100	0.211500	0.350200
N301	N30	0.577100	0.242300	0.054800
O411	O41	0.578080	0.550100	0.794900
O421	O42	0.523960	0.553000	0.682700
O431	O43	0.556570	0.457900	0.461700
O441	O44	0.628400	0.434900	0.470600
O451	O45	0.725840	0.495600	0.739000
O461	O46	0.906900	0.468700	0.757400
O471	O47	0.975600	0.688300	0.615400
O481	O48	0.992680	0.599500	0.538900
O491	O49	0.990900	0.257300	0.580900
O501	O50	0.952000	0.212000	0.651600
Zn91	Zn9	0.541840	0.580250	0.856070
Zn101	Zn10	0.004520	0.264510	0.486370
C1811	C181	0.064400	0.044300	0.724900
C1821	C182	0.099600	0.025100	0.690200
C1831	C183	0.146500	0.021500	0.734700
H1211	H121	0.156600	0.032900	0.786100
C1841	C184	0.178100	0.000600	0.700900
C1851	C185	0.163000	0.980600	0.623800
H1221	H122	0.184600	0.965300	0.602300
C1861	C186	0.116500	0.983600	0.579700
C1871	C187	0.100600	0.958100	0.498100
C1881	C188	0.084800	0.007000	0.614100
H1231	H123	0.053200	0.010400	0.584900
C1891	C189	0.242700	0.013300	0.817900
H1241	H124	0.232300	0.072500	0.827400
H1251	H125	0.231000	0.968000	0.843300
C1901	C190	0.294600	0.010300	0.846600
C1911	C191	0.318000	0.996300	0.922900
H1261	H126	0.301300	0.987000	0.954100
C1921	C192	0.366100	0.996100	0.953100
H1271	H127	0.381200	0.986600	0.004500
C1931	C193	0.391100	0.008700	0.911500
H1281	H128	0.423400	0.007800	0.933000
C1941	C194	0.368600	0.023400	0.834700
C1951	C195	0.319900	0.020900	0.803200
H1291	H129	0.304900	0.026600	0.751300
C1961	C196	0.397100	0.047500	0.779800
H1301	H130	0.425300	0.080800	0.807100
H1311	H131	0.378000	0.083600	0.737000
C1971	C197	0.429400	0.968000	0.709900
C1981	C198	0.443700	0.043100	0.680000
H1321	H132	0.438500	0.101300	0.693900
C1991	C199	0.466300	0.030100	0.628200
C2001	C200	0.479200	0.109700	0.592900
C2011	C201	0.474700	0.943600	0.609000
H1331	H133	0.489500	0.935100	0.575000
C2021	C202	0.460800	0.868500	0.640700
C2031	C203	0.468700	0.773800	0.622200
C2041	C204	0.438300	0.882400	0.691900
H1341	H134	0.429300	0.832900	0.713500
C2051	C205	0.422600	0.724900	0.344100
H1351	H135	0.447600	0.711300	0.329700
C2061	C206	0.378700	0.718600	0.291800
H1361	H136	0.374700	0.698700	0.243600
C2071	C207	0.342100	0.739300	0.306700
C2081	C208	0.348300	0.761300	0.382200
H1371	H137	0.323200	0.772700	0.396600
C2091	C209	0.394900	0.765100	0.434700
H1381	H138	0.399700	0.778800	0.484600
C2101	C210	0.297400	0.739800	0.241000
C2111	C211	0.225400	0.745900	0.169900
C2121	C212	0.171700	0.744600	0.134700
C2131	C213	0.143500	0.717900	0.168200
H1391	H139	0.155100	0.699600	0.218300
C2141	C214	0.095200	0.717800	0.125800
H1401	H140	0.075200	0.699300	0.149400
C2151	C215	0.107600	0.764000	0.027800
H1411	H141	0.097000	0.778300	0.976800
C2161	C216	0.154500	0.768400	0.066200
H1421	H142	0.173800	0.788800	0.042000
N311	N31	0.431400	0.750500	0.417100
N321	N32	0.295700	0.752200	0.174600
N331	N33	0.252100	0.758300	0.135800
N341	N34	0.253400	0.738700	0.240000
N351	N35	0.240800	0.714500	0.305900
H1431	H143	0.212300	0.703600	0.299700
H1441	H144	0.262100	0.711500	0.350200
N361	N36	0.077100	0.742300	0.054800
O511	O51	0.078080	0.050100	0.794900
O521	O52	0.023960	0.053000	0.682700
O531	O53	0.056570	0.957900	0.461700
O541	O54	0.128400	0.934900	0.470600
O551	O55	0.225840	0.995600	0.739000
O561	O56	0.406900	0.968700	0.757400
O571	O57	0.475600	0.188300	0.615400
O581	O58	0.492680	0.099500	0.538900
O591	O59	0.490900	0.757300	0.580900
O601	O60	0.452000	0.712000	0.651600
Zn111	Zn11	0.041840	0.080250	0.856070
Zn121	Zn12	0.504520	0.764510	0.486370
C2171	C217	0.435600	0.544300	0.775100
C2181	C218	0.400400	0.525100	0.809800
C2191	C219	0.353500	0.521500	0.765300
H1451	H145	0.343400	0.532900	0.713900
C2201	C220	0.321900	0.500600	0.799100
C2211	C221	0.337000	0.480600	0.876200
H1461	H146	0.315400	0.465300	0.897700
C2221	C222	0.383500	0.483600	0.920300
C2231	C223	0.399400	0.458100	0.001900
C2241	C224	0.415200	0.507000	0.885900
H1471	H147	0.446800	0.510400	0.915100
C2251	C225	0.257300	0.513300	0.682100
H1481	H148	0.267700	0.572500	0.672600
H1491	H149	0.269000	0.468000	0.656700
C2261	C226	0.205400	0.510300	0.653400
C2271	C227	0.182000	0.496300	0.577100
H1501	H150	0.198700	0.487000	0.545900
C2281	C228	0.133900	0.496100	0.546900
H1511	H151	0.118800	0.486600	0.495500
C2291	C229	0.108900	0.508700	0.588500
H1521	H152	0.076600	0.507800	0.567000
C2301	C230	0.131400	0.523400	0.665300
C2311	C231	0.180100	0.520900	0.696800
H1531	H153	0.195100	0.526600	0.748700
C2321	C232	0.102900	0.547500	0.720200
H1541	H154	0.074700	0.580800	0.692900
H1551	H155	0.122000	0.583600	0.763000
C2331	C233	0.070600	0.468000	0.790100
C2341	C234	0.056300	0.543100	0.820000
H1561	H156	0.061500	0.601300	0.806100
C2351	C235	0.033700	0.530100	0.871800
C2361	C236	0.020800	0.609700	0.907100
C2371	C237	0.025300	0.443600	0.891000
H1571	H157	0.010500	0.435100	0.925000
C2381	C238	0.039200	0.368500	0.859300
C2391	C239	0.031300	0.273800	0.877800
C2401	C240	0.061700	0.382400	0.808100
H1581	H158	0.070700	0.332900	0.786500
C2411	C241	0.077400	0.224900	0.155900
H1591	H159	0.052400	0.211300	0.170300
C2421	C242	0.121300	0.218600	0.208200
H1601	H160	0.125300	0.198700	0.256400
C2431	C243	0.157900	0.239300	0.193300
C2441	C244	0.151700	0.261300	0.117800
H1611	H161	0.176800	0.272700	0.103400
C2451	C245	0.105100	0.265100	0.065300
H1621	H162	0.100300	0.278800	0.015400
C2461	C246	0.202600	0.239800	0.259000
C2471	C247	0.274600	0.245900	0.330100
C2481	C248	0.328300	0.244600	0.365300
C2491	C249	0.356500	0.217900	0.331800
H1631	H163	0.344900	0.199600	0.281700
C2501	C250	0.404800	0.217800	0.374200
H1641	H164	0.424800	0.199300	0.350600
C2511	C251	0.392400	0.264000	0.472200
H1651	H165	0.403000	0.278300	0.523200
C2521	C252	0.345500	0.268400	0.433800
H1661	H166	0.326200	0.288800	0.458000
N371	N37	0.068600	0.250500	0.082900
N381	N38	0.204300	0.252200	0.325400
N391	N39	0.247900	0.258300	0.364200
N401	N40	0.246600	0.238700	0.260000
N411	N41	0.259200	0.214500	0.194100
H1671	H167	0.287700	0.203600	0.200300
H1681	H168	0.237900	0.211500	0.149800
N421	N42	0.422900	0.242300	0.445200
O611	O61	0.421920	0.550100	0.705100
O621	O62	0.476040	0.553000	0.817300
O631	O63	0.443430	0.457900	0.038300
O641	O64	0.371600	0.434900	0.029400
O651	O65	0.274160	0.495600	0.761000
O661	O66	0.093100	0.468700	0.742600
O671	O67	0.024400	0.688300	0.884600
O681	O68	0.007320	0.599500	0.961100
O691	O69	0.009100	0.257300	0.919100
O701	O70	0.048000	0.212000	0.848400
Zn131	Zn13	0.458160	0.580250	0.643930
Zn141	Zn14	0.995480	0.264510	0.013630
C2531	C253	0.935600	0.044300	0.775100
C2541	C254	0.900400	0.025100	0.809800
C2551	C255	0.853500	0.021500	0.765300
H1691	H169	0.843400	0.032900	0.713900
C2561	C256	0.821900	0.000600	0.799100
C2571	C257	0.837000	0.980600	0.876200
H1701	H170	0.815400	0.965300	0.897700
C2581	C258	0.883500	0.983600	0.920300
C2591	C259	0.899400	0.958100	0.001900
C2601	C260	0.915200	0.007000	0.885900
H1711	H171	0.946800	0.010400	0.915100
C2611	C261	0.757300	0.013300	0.682100
H1721	H172	0.767700	0.072500	0.672600
H1731	H173	0.769000	0.968000	0.656700
C2621	C262	0.705400	0.010300	0.653400
C2631	C263	0.682000	0.996300	0.577100
H1741	H174	0.698700	0.987000	0.545900
C2641	C264	0.633900	0.996100	0.546900
H1751	H175	0.618800	0.986600	0.495500
C2651	C265	0.608900	0.008700	0.588500
H1761	H176	0.576600	0.007800	0.567000
C2661	C266	0.631400	0.023400	0.665300
C2671	C267	0.680100	0.020900	0.696800
H1771	H177	0.695100	0.026600	0.748700
C2681	C268	0.602900	0.047500	0.720200
H1781	H178	0.574700	0.080800	0.692900
H1791	H179	0.622000	0.083600	0.763000
C2691	C269	0.570600	0.968000	0.790100
C2701	C270	0.556300	0.043100	0.820000
H1801	H180	0.561500	0.101300	0.806100
C2711	C271	0.533700	0.030100	0.871800
C2721	C272	0.520800	0.109700	0.907100
C2731	C273	0.525300	0.943600	0.891000
H1811	H181	0.510500	0.935100	0.925000
C2741	C274	0.539200	0.868500	0.859300
C2751	C275	0.531300	0.773800	0.877800
C2761	C276	0.561700	0.882400	0.808100
H1821	H182	0.570700	0.832900	0.786500
C2771	C277	0.577400	0.724900	0.155900
H1831	H183	0.552400	0.711300	0.170300
C2781	C278	0.621300	0.718600	0.208200
H1841	H184	0.625300	0.698700	0.256400
C2791	C279	0.657900	0.739300	0.193300
C2801	C280	0.651700	0.761300	0.117800
H1851	H185	0.676800	0.772700	0.103400
C2811	C281	0.605100	0.765100	0.065300
H1861	H186	0.600300	0.778800	0.015400
C2821	C282	0.702600	0.739800	0.259000
C2831	C283	0.774600	0.745900	0.330100
C2841	C284	0.828300	0.744600	0.365300
C2851	C285	0.856500	0.717900	0.331800
H1871	H187	0.844900	0.699600	0.281700
C2861	C286	0.904800	0.717800	0.374200
H1881	H188	0.924800	0.699300	0.350600
C2871	C287	0.892400	0.764000	0.472200
H1891	H189	0.903000	0.778300	0.523200
C2881	C288	0.845500	0.768400	0.433800
H1901	H190	0.826200	0.788800	0.458000
N431	N43	0.568600	0.750500	0.082900
N441	N44	0.704300	0.752200	0.325400
N451	N45	0.747900	0.758300	0.364200
N461	N46	0.746600	0.738700	0.260000
N471	N47	0.759200	0.714500	0.194100
H1911	H191	0.787700	0.703600	0.200300
H1921	H192	0.737900	0.711500	0.149800
N481	N48	0.922900	0.742300	0.445200
O711	O71	0.921920	0.050100	0.705100
O721	O72	0.976040	0.053000	0.817300
O731	O73	0.943430	0.957900	0.038300
O741	O74	0.871600	0.934900	0.029400
O751	O75	0.774160	0.995600	0.761000
O761	O76	0.593100	0.968700	0.742600
O771	O77	0.524400	0.188300	0.884600
O781	O78	0.507320	0.099500	0.961100
O791	O79	0.509100	0.757300	0.919100
O801	O80	0.548000	0.712000	0.848400
Zn151	Zn15	0.958160	0.080250	0.643930
Zn161	Zn16	0.495480	0.764510	0.013630
