data_WOPSOL_clean_PM
_symmetry_space_group_name_H-M	'P1'
_cell_length_a	25.612500
_cell_length_b	25.612500
_cell_length_c	6.803600
_cell_angle_alpha	90.000000
_cell_angle_beta	90.000000
_cell_angle_gamma	120.000000
_symmetry_Int_Tables_number 1

loop_
_symmetry_equiv_pos_as_xyz
'x,y,z'

loop_
_atom_site_label
_atom_site_type_symbol
_atom_site_fract_x
_atom_site_fract_y
_atom_site_fract_z
Fe11	Fe1	0.389290	0.351130	0.153990
O11	O1	0.323000	0.297150	0.355500
O21	O2	0.300900	0.228390	0.594000
O31	O3	0.355340	0.272800	0.998900
C11	C1	0.316400	0.246700	0.415100
C21	C2	0.326000	0.205200	0.288100
C31	C3	0.343100	0.220200	0.092200
C41	C4	0.349200	0.179500	0.956500
Fe21	Fe2	0.055960	0.684460	0.487320
O41	O4	0.989670	0.630480	0.688830
O51	O5	0.967570	0.561720	0.927330
O61	O6	0.022010	0.606130	0.332230
C51	C5	0.983070	0.580030	0.748430
C61	C6	0.992670	0.538530	0.621430
C71	C7	0.009770	0.553530	0.425530
C81	C8	0.015870	0.512830	0.289830
Fe31	Fe3	0.722620	0.017800	0.820660
O71	O7	0.656330	0.963820	0.022170
O81	O8	0.634230	0.895060	0.260670
O91	O9	0.688670	0.939470	0.665570
C91	C9	0.649730	0.913370	0.081770
C101	C10	0.659330	0.871870	0.954770
C111	C11	0.676430	0.886870	0.758870
C121	C12	0.682530	0.846170	0.623170
Fe41	Fe4	0.648870	0.038160	0.153990
O101	O10	0.702850	0.025850	0.355500
O111	O11	0.771610	0.072510	0.594000
O121	O12	0.727200	0.082540	0.998900
C131	C13	0.753300	0.069700	0.415100
C141	C14	0.794800	0.120800	0.288100
C151	C15	0.779800	0.122900	0.092200
C161	C16	0.820500	0.169700	0.956500
Fe51	Fe5	0.315540	0.371490	0.487320
O131	O13	0.369520	0.359180	0.688830
O141	O14	0.438280	0.405840	0.927330
O151	O15	0.393870	0.415870	0.332230
C171	C17	0.419970	0.403030	0.748430
C181	C18	0.461470	0.454130	0.621430
C191	C19	0.446470	0.456230	0.425530
C201	C20	0.487170	0.503030	0.289830
Fe61	Fe6	0.982200	0.704830	0.820660
O161	O16	0.036180	0.692520	0.022170
O171	O17	0.104940	0.739180	0.260670
O181	O18	0.060530	0.749210	0.665570
C211	C21	0.086630	0.736370	0.081770
C221	C22	0.128130	0.787470	0.954770
C231	C23	0.113130	0.789570	0.758870
C241	C24	0.153830	0.836370	0.623170
Fe71	Fe7	0.961840	0.610710	0.153990
O191	O19	0.974150	0.677000	0.355500
O201	O20	0.927490	0.699100	0.594000
O211	O21	0.917460	0.644660	0.998900
C251	C25	0.930300	0.683600	0.415100
C261	C26	0.879200	0.674000	0.288100
C271	C27	0.877100	0.656900	0.092200
C281	C28	0.830300	0.650800	0.956500
Fe81	Fe8	0.628510	0.944040	0.487320
O221	O22	0.640820	0.010330	0.688830
O231	O23	0.594160	0.032430	0.927330
O241	O24	0.584130	0.977990	0.332230
C291	C29	0.596970	0.016930	0.748430
C301	C30	0.545870	0.007330	0.621430
C311	C31	0.543770	0.990230	0.425530
C321	C32	0.496970	0.984130	0.289830
Fe91	Fe9	0.295170	0.277380	0.820660
O251	O25	0.307480	0.343670	0.022170
O261	O26	0.260820	0.365770	0.260670
O271	O27	0.250790	0.311330	0.665570
C331	C33	0.263630	0.350270	0.081770
C341	C34	0.212530	0.340670	0.954770
C351	C35	0.210430	0.323570	0.758870
C361	C36	0.163630	0.317470	0.623170
Fe101	Fe10	0.610710	0.648870	0.846010
O281	O28	0.677000	0.702850	0.644500
O291	O29	0.699100	0.771610	0.406000
O301	O30	0.644660	0.727200	0.001100
C371	C37	0.683600	0.753300	0.584900
C381	C38	0.674000	0.794800	0.711900
C391	C39	0.656900	0.779800	0.907800
C401	C40	0.650800	0.820500	0.043500
Fe111	Fe11	0.277380	0.982200	0.179340
O311	O31	0.343670	0.036180	0.977830
O321	O32	0.365770	0.104940	0.739330
O331	O33	0.311330	0.060530	0.334430
C411	C41	0.350270	0.086630	0.918230
C421	C42	0.340670	0.128130	0.045230
C431	C43	0.323570	0.113130	0.241130
C441	C44	0.317470	0.153830	0.376830
Fe121	Fe12	0.944040	0.315540	0.512680
O341	O34	0.010330	0.369520	0.311170
O351	O35	0.032430	0.438280	0.072670
O361	O36	0.977990	0.393870	0.667770
C451	C45	0.016930	0.419970	0.251570
C461	C46	0.007330	0.461470	0.378570
C471	C47	0.990230	0.446470	0.574470
C481	C48	0.984130	0.487170	0.710170
Fe131	Fe13	0.351130	0.961840	0.846010
O371	O37	0.297150	0.974150	0.644500
O381	O38	0.228390	0.927490	0.406000
O391	O39	0.272800	0.917460	0.001100
C491	C49	0.246700	0.930300	0.584900
C501	C50	0.205200	0.879200	0.711900
C511	C51	0.220200	0.877100	0.907800
C521	C52	0.179500	0.830300	0.043500
Fe141	Fe14	0.017800	0.295170	0.179340
O401	O40	0.963820	0.307480	0.977830
O411	O41	0.895060	0.260820	0.739330
O421	O42	0.939470	0.250790	0.334430
C531	C53	0.913370	0.263630	0.918230
C541	C54	0.871870	0.212530	0.045230
C551	C55	0.886870	0.210430	0.241130
C561	C56	0.846170	0.163630	0.376830
Fe151	Fe15	0.684460	0.628510	0.512680
O431	O43	0.630480	0.640820	0.311170
O441	O44	0.561720	0.594160	0.072670
O451	O45	0.606130	0.584130	0.667770
C571	C57	0.580030	0.596970	0.251570
C581	C58	0.538530	0.545870	0.378570
C591	C59	0.553530	0.543770	0.574470
C601	C60	0.512830	0.496970	0.710170
Fe161	Fe16	0.038160	0.389290	0.846010
O461	O46	0.025850	0.323000	0.644500
O471	O47	0.072510	0.300900	0.406000
O481	O48	0.082540	0.355340	0.001100
C611	C61	0.069700	0.316400	0.584900
C621	C62	0.120800	0.326000	0.711900
C631	C63	0.122900	0.343100	0.907800
C641	C64	0.169700	0.349200	0.043500
Fe171	Fe17	0.704830	0.722620	0.179340
O491	O49	0.692520	0.656330	0.977830
O501	O50	0.739180	0.634230	0.739330
O511	O51	0.749210	0.688670	0.334430
C651	C65	0.736370	0.649730	0.918230
C661	C66	0.787470	0.659330	0.045230
C671	C67	0.789570	0.676430	0.241130
C681	C68	0.836370	0.682530	0.376830
Fe181	Fe18	0.371490	0.055960	0.512680
O521	O52	0.359180	0.989670	0.311170
O531	O53	0.405840	0.967570	0.072670
O541	O54	0.415870	0.022010	0.667770
C691	C69	0.403030	0.983070	0.251570
C701	C70	0.454130	0.992670	0.378570
C711	C71	0.456230	0.009770	0.574470
C721	C72	0.503030	0.015870	0.710170
