data_WOPSAX_clean_PM
_symmetry_space_group_name_H-M	'P1'
_cell_length_a	26.166000
_cell_length_b	26.166000
_cell_length_c	6.859500
_cell_angle_alpha	90.000000
_cell_angle_beta	90.000000
_cell_angle_gamma	120.000000
_symmetry_Int_Tables_number 1

loop_
_symmetry_equiv_pos_as_xyz
'x,y,z'

loop_
_atom_site_label
_atom_site_type_symbol
_atom_site_fract_x
_atom_site_fract_y
_atom_site_fract_z
Fe11	Fe1	0.381890	0.352050	0.143700
O11	O1	0.327860	0.295730	0.367600
O21	O2	0.301040	0.227150	0.601900
O31	O3	0.354970	0.273800	0.008400
C11	C1	0.319300	0.246300	0.429200
C21	C2	0.327470	0.206280	0.288700
C31	C3	0.343800	0.221330	0.092400
C41	C4	0.350600	0.181660	0.972800
H11	H1	0.361900	0.193040	0.828800
Fe21	Fe2	0.048560	0.685380	0.477030
O41	O4	0.994530	0.629060	0.700930
O51	O5	0.967710	0.560480	0.935230
O61	O6	0.021640	0.607130	0.341730
C51	C5	0.985970	0.579630	0.762530
C61	C6	0.994140	0.539610	0.622030
C71	C7	0.010470	0.554660	0.425730
C81	C8	0.017270	0.514990	0.306130
H21	H2	0.028570	0.526370	0.162130
Fe31	Fe3	0.715220	0.018720	0.810370
O71	O7	0.661190	0.962400	0.034270
O81	O8	0.634370	0.893820	0.268570
O91	O9	0.688300	0.940470	0.675070
C91	C9	0.652630	0.912970	0.095870
C101	C10	0.660800	0.872950	0.955370
C111	C11	0.677130	0.888000	0.759070
C121	C12	0.683930	0.848330	0.639470
H31	H3	0.695230	0.859710	0.495470
Fe41	Fe4	0.647950	0.029840	0.143700
O101	O10	0.704270	0.032130	0.367600
O111	O11	0.772850	0.073890	0.601900
O121	O12	0.726200	0.081170	0.008400
C131	C13	0.753700	0.073000	0.429200
C141	C14	0.793720	0.121190	0.288700
C151	C15	0.778670	0.122470	0.092400
C161	C16	0.818340	0.168940	0.972800
H41	H4	0.806960	0.168860	0.828800
Fe51	Fe5	0.314620	0.363170	0.477030
O131	O13	0.370940	0.365460	0.700930
O141	O14	0.439520	0.407220	0.935230
O151	O15	0.392870	0.414500	0.341730
C171	C17	0.420370	0.406330	0.762530
C181	C18	0.460390	0.454520	0.622030
C191	C19	0.445340	0.455800	0.425730
C201	C20	0.485010	0.502270	0.306130
H51	H5	0.473630	0.502190	0.162130
Fe61	Fe6	0.981280	0.696510	0.810370
O161	O16	0.037600	0.698800	0.034270
O171	O17	0.106180	0.740560	0.268570
O181	O18	0.059530	0.747840	0.675070
C211	C21	0.087030	0.739670	0.095870
C221	C22	0.127050	0.787860	0.955370
C231	C23	0.112000	0.789140	0.759070
C241	C24	0.151670	0.835610	0.639470
H61	H6	0.140290	0.835530	0.495470
Fe71	Fe7	0.970160	0.618110	0.143700
O191	O19	0.967870	0.672140	0.367600
O201	O20	0.926110	0.698960	0.601900
O211	O21	0.918830	0.645030	0.008400
C251	C25	0.927000	0.680700	0.429200
C261	C26	0.878810	0.672530	0.288700
C271	C27	0.877530	0.656200	0.092400
C281	C28	0.831060	0.649400	0.972800
H71	H7	0.831140	0.638100	0.828800
Fe81	Fe8	0.636830	0.951440	0.477030
O221	O22	0.634540	0.005470	0.700930
O231	O23	0.592780	0.032290	0.935230
O241	O24	0.585500	0.978360	0.341730
C291	C29	0.593670	0.014030	0.762530
C301	C30	0.545480	0.005860	0.622030
C311	C31	0.544200	0.989530	0.425730
C321	C32	0.497730	0.982730	0.306130
H81	H8	0.497810	0.971430	0.162130
Fe91	Fe9	0.303490	0.284780	0.810370
O251	O25	0.301200	0.338810	0.034270
O261	O26	0.259440	0.365630	0.268570
O271	O27	0.252160	0.311700	0.675070
C331	C33	0.260330	0.347370	0.095870
C341	C34	0.212140	0.339200	0.955370
C351	C35	0.210860	0.322870	0.759070
C361	C36	0.164390	0.316070	0.639470
H91	H9	0.164470	0.304770	0.495470
Fe101	Fe10	0.618110	0.647950	0.856300
O281	O28	0.672140	0.704270	0.632400
O291	O29	0.698960	0.772850	0.398100
O301	O30	0.645030	0.726200	0.991600
C371	C37	0.680700	0.753700	0.570800
C381	C38	0.672530	0.793720	0.711300
C391	C39	0.656200	0.778670	0.907600
C401	C40	0.649400	0.818340	0.027200
H101	H10	0.638100	0.806960	0.171200
Fe111	Fe11	0.284780	0.981280	0.189630
O311	O31	0.338810	0.037600	0.965730
O321	O32	0.365630	0.106180	0.731430
O331	O33	0.311700	0.059530	0.324930
C411	C41	0.347370	0.087030	0.904130
C421	C42	0.339200	0.127050	0.044630
C431	C43	0.322870	0.112000	0.240930
C441	C44	0.316070	0.151670	0.360530
H111	H11	0.304770	0.140290	0.504530
Fe121	Fe12	0.951440	0.314620	0.522970
O341	O34	0.005470	0.370940	0.299070
O351	O35	0.032290	0.439520	0.064770
O361	O36	0.978360	0.392870	0.658270
C451	C45	0.014030	0.420370	0.237470
C461	C46	0.005860	0.460390	0.377970
C471	C47	0.989530	0.445340	0.574270
C481	C48	0.982730	0.485010	0.693870
H121	H12	0.971430	0.473630	0.837870
Fe131	Fe13	0.352050	0.970160	0.856300
O371	O37	0.295730	0.967870	0.632400
O381	O38	0.227150	0.926110	0.398100
O391	O39	0.273800	0.918830	0.991600
C491	C49	0.246300	0.927000	0.570800
C501	C50	0.206280	0.878810	0.711300
C511	C51	0.221330	0.877530	0.907600
C521	C52	0.181660	0.831060	0.027200
H131	H13	0.193040	0.831140	0.171200
Fe141	Fe14	0.018720	0.303490	0.189630
O401	O40	0.962400	0.301200	0.965730
O411	O41	0.893820	0.259440	0.731430
O421	O42	0.940470	0.252160	0.324930
C531	C53	0.912970	0.260330	0.904130
C541	C54	0.872950	0.212140	0.044630
C551	C55	0.888000	0.210860	0.240930
C561	C56	0.848330	0.164390	0.360530
H141	H14	0.859710	0.164470	0.504530
Fe151	Fe15	0.685380	0.636830	0.522970
O431	O43	0.629060	0.634540	0.299070
O441	O44	0.560480	0.592780	0.064770
O451	O45	0.607130	0.585500	0.658270
C571	C57	0.579630	0.593670	0.237470
C581	C58	0.539610	0.545480	0.377970
C591	C59	0.554660	0.544200	0.574270
C601	C60	0.514990	0.497730	0.693870
H151	H15	0.526370	0.497810	0.837870
Fe161	Fe16	0.029840	0.381890	0.856300
O461	O46	0.032130	0.327860	0.632400
O471	O47	0.073890	0.301040	0.398100
O481	O48	0.081170	0.354970	0.991600
C611	C61	0.073000	0.319300	0.570800
C621	C62	0.121190	0.327470	0.711300
C631	C63	0.122470	0.343800	0.907600
C641	C64	0.168940	0.350600	0.027200
H161	H16	0.168860	0.361900	0.171200
Fe171	Fe17	0.696510	0.715220	0.189630
O491	O49	0.698800	0.661190	0.965730
O501	O50	0.740560	0.634370	0.731430
O511	O51	0.747840	0.688300	0.324930
C651	C65	0.739670	0.652630	0.904130
C661	C66	0.787860	0.660800	0.044630
C671	C67	0.789140	0.677130	0.240930
C681	C68	0.835610	0.683930	0.360530
H171	H17	0.835530	0.695230	0.504530
Fe181	Fe18	0.363170	0.048560	0.522970
O521	O52	0.365460	0.994530	0.299070
O531	O53	0.407220	0.967710	0.064770
O541	O54	0.414500	0.021640	0.658270
C691	C69	0.406330	0.985970	0.237470
C701	C70	0.454520	0.994140	0.377970
C711	C71	0.455800	0.010470	0.574270
C721	C72	0.502270	0.017270	0.693870
H181	H18	0.502190	0.028570	0.837870
