data_WOPSAX02_clean_PM
_symmetry_space_group_name_H-M	'P1'
_cell_length_a	26.157700
_cell_length_b	26.157700
_cell_length_c	6.867100
_cell_angle_alpha	90.000000
_cell_angle_beta	90.000000
_cell_angle_gamma	120.000000
_symmetry_Int_Tables_number 1

loop_
_symmetry_equiv_pos_as_xyz
'x,y,z'

loop_
_atom_site_label
_atom_site_type_symbol
_atom_site_fract_x
_atom_site_fract_y
_atom_site_fract_z
Fe11	Fe1	0.382890	0.352250	0.142800
O11	O1	0.326760	0.294500	0.366700
O21	O2	0.301870	0.227410	0.600000
O31	O3	0.355010	0.273260	0.009300
C11	C1	0.318930	0.245220	0.427300
C21	C2	0.328030	0.205890	0.285700
C31	C3	0.344640	0.221130	0.093300
C41	C4	0.352140	0.183260	0.973800
H11	H1	0.360230	0.192660	0.829600
Fe21	Fe2	0.049560	0.685580	0.476130
O41	O4	0.993430	0.627830	0.700030
O51	O5	0.968540	0.560740	0.933330
O61	O6	0.021680	0.606590	0.342630
C51	C5	0.985600	0.578550	0.760630
C61	C6	0.994700	0.539220	0.619030
C71	C7	0.011310	0.554460	0.426630
C81	C8	0.018810	0.516590	0.307130
H21	H2	0.026900	0.525990	0.162930
Fe31	Fe3	0.716220	0.018920	0.809470
O71	O7	0.660090	0.961170	0.033370
O81	O8	0.635200	0.894080	0.266670
O91	O9	0.688340	0.939930	0.675970
C91	C9	0.652260	0.911890	0.093970
C101	C10	0.661360	0.872560	0.952370
C111	C11	0.677970	0.887800	0.759970
C121	C12	0.685470	0.849930	0.640470
H31	H3	0.693560	0.859330	0.496270
Fe41	Fe4	0.647750	0.030640	0.142800
O101	O10	0.705500	0.032260	0.366700
O111	O11	0.772590	0.074460	0.600000
O121	O12	0.726740	0.081750	0.009300
C131	C13	0.754780	0.073710	0.427300
C141	C14	0.794110	0.122140	0.285700
C151	C15	0.778870	0.123510	0.093300
C161	C16	0.816740	0.168880	0.973800
H41	H4	0.807340	0.167570	0.829600
Fe51	Fe5	0.314420	0.363970	0.476130
O131	O13	0.372170	0.365590	0.700030
O141	O14	0.439260	0.407790	0.933330
O151	O15	0.393410	0.415080	0.342630
C171	C17	0.421450	0.407040	0.760630
C181	C18	0.460780	0.455470	0.619030
C191	C19	0.445540	0.456840	0.426630
C201	C20	0.483410	0.502210	0.307130
H51	H5	0.474010	0.500900	0.162930
Fe61	Fe6	0.981080	0.697310	0.809470
O161	O16	0.038830	0.698930	0.033370
O171	O17	0.105920	0.741130	0.266670
O181	O18	0.060070	0.748420	0.675970
C211	C21	0.088110	0.740380	0.093970
C221	C22	0.127440	0.788810	0.952370
C231	C23	0.112200	0.790180	0.759970
C241	C24	0.150070	0.835550	0.640470
H61	H6	0.140670	0.834240	0.496270
Fe71	Fe7	0.969360	0.617110	0.142800
O191	O19	0.967740	0.673240	0.366700
O201	O20	0.925540	0.698130	0.600000
O211	O21	0.918250	0.644990	0.009300
C251	C25	0.926290	0.681070	0.427300
C261	C26	0.877860	0.671970	0.285700
C271	C27	0.876490	0.655360	0.093300
C281	C28	0.831120	0.647860	0.973800
H71	H7	0.832430	0.639770	0.829600
Fe81	Fe8	0.636030	0.950440	0.476130
O221	O22	0.634410	0.006570	0.700030
O231	O23	0.592210	0.031460	0.933330
O241	O24	0.584920	0.978320	0.342630
C291	C29	0.592960	0.014400	0.760630
C301	C30	0.544530	0.005300	0.619030
C311	C31	0.543160	0.988690	0.426630
C321	C32	0.497790	0.981190	0.307130
H81	H8	0.499100	0.973100	0.162930
Fe91	Fe9	0.302690	0.283780	0.809470
O251	O25	0.301070	0.339910	0.033370
O261	O26	0.258870	0.364800	0.266670
O271	O27	0.251580	0.311660	0.675970
C331	C33	0.259620	0.347740	0.093970
C341	C34	0.211190	0.338640	0.952370
C351	C35	0.209820	0.322030	0.759970
C361	C36	0.164450	0.314530	0.640470
H91	H9	0.165760	0.306440	0.496270
Fe101	Fe10	0.617110	0.647750	0.857200
O281	O28	0.673240	0.705500	0.633300
O291	O29	0.698130	0.772590	0.400000
O301	O30	0.644990	0.726740	0.990700
C371	C37	0.681070	0.754780	0.572700
C381	C38	0.671970	0.794110	0.714300
C391	C39	0.655360	0.778870	0.906700
C401	C40	0.647860	0.816740	0.026200
H101	H10	0.639770	0.807340	0.170400
Fe111	Fe11	0.283780	0.981080	0.190530
O311	O31	0.339910	0.038830	0.966630
O321	O32	0.364800	0.105920	0.733330
O331	O33	0.311660	0.060070	0.324030
C411	C41	0.347740	0.088110	0.906030
C421	C42	0.338640	0.127440	0.047630
C431	C43	0.322030	0.112200	0.240030
C441	C44	0.314530	0.150070	0.359530
H111	H11	0.306440	0.140670	0.503730
Fe121	Fe12	0.950440	0.314420	0.523870
O341	O34	0.006570	0.372170	0.299970
O351	O35	0.031460	0.439260	0.066670
O361	O36	0.978320	0.393410	0.657370
C451	C45	0.014400	0.421450	0.239370
C461	C46	0.005300	0.460780	0.380970
C471	C47	0.988690	0.445540	0.573370
C481	C48	0.981190	0.483410	0.692870
H121	H12	0.973100	0.474010	0.837070
Fe131	Fe13	0.352250	0.969360	0.857200
O371	O37	0.294500	0.967740	0.633300
O381	O38	0.227410	0.925540	0.400000
O391	O39	0.273260	0.918250	0.990700
C491	C49	0.245220	0.926290	0.572700
C501	C50	0.205890	0.877860	0.714300
C511	C51	0.221130	0.876490	0.906700
C521	C52	0.183260	0.831120	0.026200
H131	H13	0.192660	0.832430	0.170400
Fe141	Fe14	0.018920	0.302690	0.190530
O401	O40	0.961170	0.301070	0.966630
O411	O41	0.894080	0.258870	0.733330
O421	O42	0.939930	0.251580	0.324030
C531	C53	0.911890	0.259620	0.906030
C541	C54	0.872560	0.211190	0.047630
C551	C55	0.887800	0.209820	0.240030
C561	C56	0.849930	0.164450	0.359530
H141	H14	0.859330	0.165760	0.503730
Fe151	Fe15	0.685580	0.636030	0.523870
O431	O43	0.627830	0.634410	0.299970
O441	O44	0.560740	0.592210	0.066670
O451	O45	0.606590	0.584920	0.657370
C571	C57	0.578550	0.592960	0.239370
C581	C58	0.539220	0.544530	0.380970
C591	C59	0.554460	0.543160	0.573370
C601	C60	0.516590	0.497790	0.692870
H151	H15	0.525990	0.499100	0.837070
Fe161	Fe16	0.030640	0.382890	0.857200
O461	O46	0.032260	0.326760	0.633300
O471	O47	0.074460	0.301870	0.400000
O481	O48	0.081750	0.355010	0.990700
C611	C61	0.073710	0.318930	0.572700
C621	C62	0.122140	0.328030	0.714300
C631	C63	0.123510	0.344640	0.906700
C641	C64	0.168880	0.352140	0.026200
H161	H16	0.167570	0.360230	0.170400
Fe171	Fe17	0.697310	0.716220	0.190530
O491	O49	0.698930	0.660090	0.966630
O501	O50	0.741130	0.635200	0.733330
O511	O51	0.748420	0.688340	0.324030
C651	C65	0.740380	0.652260	0.906030
C661	C66	0.788810	0.661360	0.047630
C671	C67	0.790180	0.677970	0.240030
C681	C68	0.835550	0.685470	0.359530
H171	H17	0.834240	0.693560	0.503730
Fe181	Fe18	0.363970	0.049560	0.523870
O521	O52	0.365590	0.993430	0.299970
O531	O53	0.407790	0.968540	0.066670
O541	O54	0.415080	0.021680	0.657370
C691	C69	0.407040	0.985600	0.239370
C701	C70	0.455470	0.994700	0.380970
C711	C71	0.456840	0.011310	0.573370
C721	C72	0.502210	0.018810	0.692870
H181	H18	0.500900	0.026900	0.837070
