data_WOPWOO_clean_PM
_symmetry_space_group_name_H-M	'P1'
_cell_length_a	14.704000
_cell_length_b	17.244000
_cell_length_c	24.516000
_cell_angle_alpha	105.772000
_cell_angle_beta	90.000000
_cell_angle_gamma	90.000000
_symmetry_Int_Tables_number 1

loop_
_symmetry_equiv_pos_as_xyz
'x,y,z'

loop_
_atom_site_label
_atom_site_type_symbol
_atom_site_fract_x
_atom_site_fract_y
_atom_site_fract_z
Cr11	Cr1	0.524100	0.209960	0.590600
Cr21	Cr2	0.506380	0.216860	0.344460
Cr31	Cr3	0.510380	0.206750	0.841200
Cr41	Cr4	0.016180	0.289540	0.407000
Cr51	Cr5	0.024100	0.290040	0.909400
Cr61	Cr6	0.006380	0.283140	0.155540
Cr71	Cr7	0.010380	0.293250	0.658800
Cr81	Cr8	0.516180	0.210460	0.093000
Cr91	Cr9	0.475900	0.790040	0.409400
Cr101	Cr10	0.493620	0.783140	0.655540
Cr111	Cr11	0.489620	0.793250	0.158800
Cr121	Cr12	0.983820	0.710460	0.593000
Cr131	Cr13	0.975900	0.709960	0.090600
Cr141	Cr14	0.993620	0.716860	0.844460
Cr151	Cr15	0.989620	0.706750	0.341200
Cr161	Cr16	0.483820	0.789540	0.907000
Ag11	Ag1	0.323040	0.254120	0.751790
Ag21	Ag2	0.711550	0.245430	0.501060
Ag31	Ag3	0.698010	0.082600	0.360760
Ag41	Ag4	0.324940	0.084050	0.607010
Ag51	Ag5	0.553850	0.993830	0.625980
Ag61	Ag6	0.313430	0.253100	0.251220
Ag71	Ag7	0.823040	0.245880	0.748210
Ag81	Ag8	0.211550	0.254570	0.998940
Ag91	Ag9	0.198010	0.417400	0.139240
Ag101	Ag10	0.824940	0.415950	0.892990
Ag111	Ag11	0.053850	0.506170	0.874020
Ag121	Ag12	0.813430	0.246900	0.248780
Ag131	Ag13	0.676960	0.745880	0.248210
Ag141	Ag14	0.288450	0.754570	0.498940
Ag151	Ag15	0.301990	0.917400	0.639240
Ag161	Ag16	0.675060	0.915950	0.392990
Ag171	Ag17	0.446150	0.006170	0.374020
Ag181	Ag18	0.686570	0.746900	0.748780
Ag191	Ag19	0.176960	0.754120	0.251790
Ag201	Ag20	0.788450	0.745430	0.001060
Ag211	Ag21	0.801990	0.582600	0.860760
Ag221	Ag22	0.175060	0.584050	0.107010
Ag231	Ag23	0.946150	0.493830	0.125980
Ag241	Ag24	0.186570	0.753100	0.751220
C11	C1	0.384600	0.316800	0.589300
C21	C2	0.376300	0.292900	0.645200
C31	C3	0.672700	0.273100	0.656300
C41	C4	0.661900	0.185000	0.660100
C51	C5	0.554000	0.109400	0.482100
C61	C6	0.462900	0.082600	0.502200
C71	C7	0.359200	0.286200	0.411500
C81	C8	0.362600	0.196500	0.412500
C91	C9	0.659400	0.294100	0.397500
C101	C10	0.652800	0.315400	0.340100
C111	C11	0.553500	0.084000	0.256300
C121	C12	0.465100	0.118600	0.237300
C131	C13	0.469500	0.109800	0.734100
C141	C14	0.558800	0.075200	0.752100
C151	C15	0.655500	0.306800	0.837000
C161	C16	0.665000	0.283700	0.894300
C171	C17	0.367200	0.188900	0.910500
C181	C18	0.364400	0.277200	0.907100
C191	C19	0.865900	0.208000	0.354000
C201	C20	0.873100	0.188200	0.411500
C211	C21	0.957300	0.416900	0.494900
C221	C22	0.049200	0.389000	0.514500
C231	C23	0.167700	0.228500	0.342500
C241	C24	0.157900	0.316900	0.339300
C251	C25	0.884600	0.183200	0.910700
C261	C26	0.876300	0.207100	0.854800
C271	C27	0.172700	0.226900	0.843700
C281	C28	0.161900	0.315000	0.839900
C291	C29	0.054000	0.390600	0.017900
C301	C30	0.962900	0.417400	0.997800
C311	C31	0.859200	0.213800	0.088500
C321	C32	0.862600	0.303500	0.087500
C331	C33	0.159400	0.205900	0.102500
C341	C34	0.152800	0.184600	0.159900
C351	C35	0.053500	0.416000	0.243700
C361	C36	0.965100	0.381400	0.262700
C371	C37	0.969500	0.390200	0.765900
C381	C38	0.058800	0.424800	0.747900
C391	C39	0.155500	0.193200	0.663000
C401	C40	0.165000	0.216300	0.605700
C411	C41	0.867200	0.311100	0.589500
C421	C42	0.864400	0.222800	0.592900
C431	C43	0.365900	0.292000	0.146000
C441	C44	0.373100	0.311800	0.088500
C451	C45	0.457300	0.083100	0.005100
C461	C46	0.549200	0.111000	0.985500
C471	C47	0.667700	0.271500	0.157500
C481	C48	0.657900	0.183100	0.160700
C491	C49	0.615400	0.683200	0.410700
C501	C50	0.623700	0.707100	0.354800
C511	C51	0.327300	0.726900	0.343700
C521	C52	0.338100	0.815000	0.339900
C531	C53	0.446000	0.890600	0.517900
C541	C54	0.537100	0.917400	0.497800
C551	C55	0.640800	0.713800	0.588500
C561	C56	0.637400	0.803500	0.587500
C571	C57	0.340600	0.705900	0.602500
C581	C58	0.347200	0.684600	0.659900
C591	C59	0.446500	0.916000	0.743700
C601	C60	0.534900	0.881400	0.762700
C611	C61	0.530500	0.890200	0.265900
C621	C62	0.441200	0.924800	0.247900
C631	C63	0.344500	0.693200	0.163000
C641	C64	0.335000	0.716300	0.105700
C651	C65	0.632800	0.811100	0.089500
C661	C66	0.635600	0.722800	0.092900
C671	C67	0.134100	0.792000	0.646000
C681	C68	0.126900	0.811800	0.588500
C691	C69	0.042700	0.583100	0.505100
C701	C70	0.950800	0.611000	0.485500
C711	C71	0.832300	0.771500	0.657500
C721	C72	0.842100	0.683100	0.660700
C731	C73	0.115400	0.816800	0.089300
C741	C74	0.123700	0.792900	0.145200
C751	C75	0.827300	0.773100	0.156300
C761	C76	0.838100	0.685000	0.160100
C771	C77	0.946000	0.609400	0.982100
C781	C78	0.037100	0.582600	0.002200
C791	C79	0.140800	0.786200	0.911500
C801	C80	0.137400	0.696500	0.912500
C811	C81	0.840600	0.794100	0.897500
C821	C82	0.847200	0.815400	0.840100
C831	C83	0.946500	0.584000	0.756300
C841	C84	0.034900	0.618600	0.737300
C851	C85	0.030500	0.609800	0.234100
C861	C86	0.941200	0.575200	0.252100
C871	C87	0.844500	0.806800	0.337000
C881	C88	0.835000	0.783700	0.394300
C891	C89	0.132800	0.688900	0.410500
C901	C90	0.135600	0.777200	0.407100
C911	C91	0.634100	0.708000	0.854000
C921	C92	0.626900	0.688200	0.911500
C931	C93	0.542700	0.916900	0.994900
C941	C94	0.450800	0.889000	0.014500
C951	C95	0.332300	0.728500	0.842500
C961	C96	0.342100	0.816900	0.839300
O11	O1	0.453700	0.284500	0.558600
O21	O2	0.328400	0.361000	0.576100
O31	O3	0.438100	0.245100	0.653200
O41	O4	0.312900	0.319200	0.677700
O51	O5	0.615100	0.292800	0.623600
O61	O6	0.733200	0.315400	0.683300
O71	O7	0.597600	0.145300	0.629600
O81	O8	0.714000	0.157300	0.689300
O91	O9	0.592600	0.167600	0.518200
O101	O10	0.585200	0.072900	0.434900
O111	O11	0.443800	0.119300	0.553800
O121	O12	0.415900	0.029400	0.471400
O131	O13	0.421700	0.304800	0.379300
O141	O14	0.300900	0.331000	0.437100
O151	O15	0.429700	0.156100	0.384500
O161	O16	0.306300	0.170600	0.439400
O171	O17	0.596000	0.248900	0.406500
O181	O18	0.723300	0.320100	0.429800
O191	O19	0.582800	0.286200	0.311100
O201	O20	0.712300	0.356500	0.326100
O211	O21	0.578600	0.119900	0.306800
O221	O22	0.591400	0.025900	0.224100
O231	O23	0.433900	0.181200	0.275100
O241	O24	0.429300	0.086700	0.191600
O251	O25	0.437700	0.171200	0.770600
O261	O26	0.435900	0.077000	0.687000
O271	O27	0.582000	0.111400	0.803800
O281	O28	0.598600	0.018300	0.721000
O291	O29	0.585200	0.278000	0.807900
O301	O30	0.713900	0.349300	0.823100
O311	O31	0.599600	0.240000	0.902700
O321	O32	0.728700	0.307800	0.925600
O331	O33	0.432100	0.146600	0.880200
O341	O34	0.312300	0.164100	0.938900
O351	O35	0.426500	0.296000	0.876400
O361	O36	0.304900	0.322900	0.932700
O371	O37	0.929800	0.251600	0.343600
O381	O38	0.800500	0.183100	0.323000
O391	O39	0.943800	0.217900	0.440900
O401	O40	0.814100	0.147900	0.427200
O411	O41	0.936800	0.381300	0.443500
O421	O42	0.912700	0.470300	0.527100
O431	O43	0.085700	0.329600	0.477700
O441	O44	0.082900	0.424300	0.560700
O451	O45	0.108300	0.206700	0.374100
O461	O46	0.229100	0.186200	0.317000
O471	O47	0.089500	0.354500	0.368200
O481	O48	0.211700	0.346400	0.312600
O491	O49	0.953700	0.215500	0.941400
O501	O50	0.828400	0.139000	0.923900
O511	O51	0.938100	0.254900	0.846800
O521	O52	0.812900	0.180800	0.822300
O531	O53	0.115100	0.207200	0.876400
O541	O54	0.233200	0.184600	0.816700
O551	O55	0.097600	0.354700	0.870400
O561	O56	0.214000	0.342700	0.810700
O571	O57	0.092600	0.332400	0.981800
O581	O58	0.085200	0.427100	0.065100
O591	O59	0.943800	0.380700	0.946200
O601	O60	0.915900	0.470600	0.028600
O611	O61	0.921700	0.195200	0.120700
O621	O62	0.800900	0.169000	0.062900
O631	O63	0.929700	0.343900	0.115500
O641	O64	0.806300	0.329400	0.060600
O651	O65	0.096000	0.251100	0.093500
O661	O66	0.223300	0.179900	0.070200
O671	O67	0.082800	0.213800	0.188900
O681	O68	0.212300	0.143500	0.173900
O691	O69	0.078600	0.380100	0.193200
O701	O70	0.091400	0.474100	0.275900
O711	O71	0.933900	0.318800	0.224900
O721	O72	0.929300	0.413300	0.308400
O731	O73	0.937700	0.328800	0.729400
O741	O74	0.935900	0.423000	0.813000
O751	O75	0.082000	0.388600	0.696200
O761	O76	0.098600	0.481700	0.779000
O771	O77	0.085200	0.222000	0.692100
O781	O78	0.213900	0.150700	0.676900
O791	O79	0.099600	0.260000	0.597300
O801	O80	0.228700	0.192200	0.574400
O811	O81	0.932100	0.353400	0.619800
O821	O82	0.812300	0.335900	0.561100
O831	O83	0.926500	0.204000	0.623600
O841	O84	0.804900	0.177100	0.567300
O851	O85	0.429800	0.248400	0.156400
O861	O86	0.300500	0.316900	0.177000
O871	O87	0.443800	0.282100	0.059100
O881	O88	0.314100	0.352100	0.072800
O891	O89	0.436800	0.118700	0.056500
O901	O90	0.412700	0.029700	0.972900
O911	O91	0.585700	0.170400	0.022300
O921	O92	0.582900	0.075700	0.939300
O931	O93	0.608300	0.293300	0.125900
O941	O94	0.729100	0.313800	0.183000
O951	O95	0.589500	0.145500	0.131800
O961	O96	0.711700	0.153600	0.187400
O971	O97	0.546300	0.715500	0.441400
O981	O98	0.671600	0.639000	0.423900
O991	O99	0.561900	0.754900	0.346800
O1001	O100	0.687100	0.680800	0.322300
O1011	O101	0.384900	0.707200	0.376400
O1021	O102	0.266800	0.684600	0.316700
O1031	O103	0.402400	0.854700	0.370400
O1041	O104	0.286000	0.842700	0.310700
O1051	O105	0.407400	0.832400	0.481800
O1061	O106	0.414800	0.927100	0.565100
O1071	O107	0.556200	0.880700	0.446200
O1081	O108	0.584100	0.970600	0.528600
O1091	O109	0.578300	0.695200	0.620700
O1101	O110	0.699100	0.669000	0.562900
O1111	O111	0.570300	0.843900	0.615500
O1121	O112	0.693700	0.829400	0.560600
O1131	O113	0.404000	0.751100	0.593500
O1141	O114	0.276700	0.679900	0.570200
O1151	O115	0.417200	0.713800	0.688900
O1161	O116	0.287700	0.643500	0.673900
O1171	O117	0.421400	0.880100	0.693200
O1181	O118	0.408600	0.974100	0.775900
O1191	O119	0.566100	0.818800	0.724900
O1201	O120	0.570700	0.913300	0.808400
O1211	O121	0.562300	0.828800	0.229400
O1221	O122	0.564100	0.923000	0.313000
O1231	O123	0.418000	0.888600	0.196200
O1241	O124	0.401400	0.981700	0.279000
O1251	O125	0.414800	0.722000	0.192100
O1261	O126	0.286100	0.650700	0.176900
O1271	O127	0.400400	0.760000	0.097300
O1281	O128	0.271300	0.692200	0.074400
O1291	O129	0.567900	0.853400	0.119800
O1301	O130	0.687700	0.835900	0.061100
O1311	O131	0.573500	0.704000	0.123600
O1321	O132	0.695100	0.677100	0.067300
O1331	O133	0.070200	0.748400	0.656400
O1341	O134	0.199500	0.816900	0.677000
O1351	O135	0.056200	0.782100	0.559100
O1361	O136	0.185900	0.852100	0.572800
O1371	O137	0.063200	0.618700	0.556500
O1381	O138	0.087300	0.529700	0.472900
O1391	O139	0.914300	0.670400	0.522300
O1401	O140	0.917100	0.575700	0.439300
O1411	O141	0.891700	0.793300	0.625900
O1421	O142	0.770900	0.813800	0.683000
O1431	O143	0.910500	0.645500	0.631800
O1441	O144	0.788300	0.653600	0.687400
O1451	O145	0.046300	0.784500	0.058600
O1461	O146	0.171600	0.861000	0.076100
O1471	O147	0.061900	0.745100	0.153200
O1481	O148	0.187100	0.819200	0.177700
O1491	O149	0.884900	0.792800	0.123600
O1501	O150	0.766800	0.815400	0.183300
O1511	O151	0.902400	0.645300	0.129600
O1521	O152	0.786000	0.657300	0.189300
O1531	O153	0.907400	0.667600	0.018200
O1541	O154	0.914800	0.572900	0.934900
O1551	O155	0.056200	0.619300	0.053800
O1561	O156	0.084100	0.529400	0.971400
O1571	O157	0.078300	0.804800	0.879300
O1581	O158	0.199100	0.831000	0.937100
O1591	O159	0.070300	0.656100	0.884500
O1601	O160	0.193700	0.670600	0.939400
O1611	O161	0.904000	0.748900	0.906500
O1621	O162	0.776700	0.820100	0.929800
O1631	O163	0.917200	0.786200	0.811100
O1641	O164	0.787700	0.856500	0.826100
O1651	O165	0.921400	0.619900	0.806800
O1661	O166	0.908600	0.525900	0.724100
O1671	O167	0.066100	0.681200	0.775100
O1681	O168	0.070700	0.586700	0.691600
O1691	O169	0.062300	0.671200	0.270600
O1701	O170	0.064100	0.577000	0.187000
O1711	O171	0.918000	0.611400	0.303800
O1721	O172	0.901400	0.518300	0.221000
O1731	O173	0.914800	0.778000	0.307900
O1741	O174	0.786100	0.849300	0.323100
O1751	O175	0.900400	0.740000	0.402700
O1761	O176	0.771300	0.807800	0.425600
O1771	O177	0.067900	0.646600	0.380200
O1781	O178	0.187700	0.664100	0.438900
O1791	O179	0.073500	0.796000	0.376400
O1801	O180	0.195100	0.822900	0.432700
O1811	O181	0.570200	0.751600	0.843600
O1821	O182	0.699500	0.683100	0.823000
O1831	O183	0.556200	0.717900	0.940900
O1841	O184	0.685900	0.647900	0.927200
O1851	O185	0.563200	0.881300	0.943500
O1861	O186	0.587300	0.970300	0.027100
O1871	O187	0.414300	0.829600	0.977700
O1881	O188	0.417100	0.924300	0.060700
O1891	O189	0.391700	0.706700	0.874100
O1901	O190	0.270900	0.686200	0.817000
O1911	O191	0.410500	0.854500	0.868200
O1921	O192	0.288300	0.846400	0.812600
