data_WOQYUW_clean_PM
_symmetry_space_group_name_H-M	'P1'
_cell_length_a	7.494200
_cell_length_b	7.725700
_cell_length_c	17.852000
_cell_angle_alpha	90.000000
_cell_angle_beta	97.740000
_cell_angle_gamma	90.000000
_symmetry_Int_Tables_number 1

loop_
_symmetry_equiv_pos_as_xyz
'x,y,z'

loop_
_atom_site_label
_atom_site_type_symbol
_atom_site_fract_x
_atom_site_fract_y
_atom_site_fract_z
Co11	Co1	0.128930	0.053570	0.363540
Co21	Co2	0.784760	0.805200	0.308310
P11	P1	0.946600	0.423700	0.310960
O11	O1	0.908200	0.954300	0.407400
O21	O2	0.073600	0.308000	0.362400
O31	O3	0.012000	0.440000	0.233100
O41	O4	0.301700	0.847700	0.383400
O51	O5	0.351300	0.134400	0.301500
O61	O6	0.795900	0.904400	0.515800
O71	O7	0.558200	0.740300	0.356600
O81	O8	0.923000	0.598700	0.345300
O91	O9	0.613400	0.020000	0.276700
O101	O10	0.751200	0.339000	0.299700
H11	H1	0.756200	0.242400	0.281000
C11	C1	0.914100	0.957400	0.478600
C21	C2	0.440700	0.856100	0.352400
C31	C3	0.470500	0.019000	0.305300
Co31	Co3	0.871070	0.553570	0.136460
Co41	Co4	0.215240	0.305200	0.191690
P21	P2	0.053400	0.923700	0.189040
O111	O11	0.091800	0.454300	0.092600
O121	O12	0.926400	0.808000	0.137600
O131	O13	0.988000	0.940000	0.266900
O141	O14	0.698300	0.347700	0.116600
O151	O15	0.648700	0.634400	0.198500
O161	O16	0.204100	0.404400	0.984200
O171	O17	0.441800	0.240300	0.143400
O181	O18	0.077000	0.098700	0.154700
O191	O19	0.386600	0.520000	0.223300
O201	O20	0.248800	0.839000	0.200300
H21	H2	0.243800	0.742400	0.219000
C41	C4	0.085900	0.457400	0.021400
C51	C5	0.559300	0.356100	0.147600
C61	C6	0.529500	0.519000	0.194700
Co51	Co5	0.871070	0.946430	0.636460
Co61	Co6	0.215240	0.194800	0.691690
P31	P3	0.053400	0.576300	0.689040
O211	O21	0.091800	0.045700	0.592600
O221	O22	0.926400	0.692000	0.637600
O231	O23	0.988000	0.560000	0.766900
O241	O24	0.698300	0.152300	0.616600
O251	O25	0.648700	0.865600	0.698500
O261	O26	0.204100	0.095600	0.484200
O271	O27	0.441800	0.259700	0.643400
O281	O28	0.077000	0.401300	0.654700
O291	O29	0.386600	0.980000	0.723300
O301	O30	0.248800	0.661000	0.700300
H31	H3	0.243800	0.757600	0.719000
C71	C7	0.085900	0.042600	0.521400
C81	C8	0.559300	0.143900	0.647600
C91	C9	0.529500	0.981000	0.694700
Co71	Co7	0.128930	0.446430	0.863540
Co81	Co8	0.784760	0.694800	0.808310
P41	P4	0.946600	0.076300	0.810960
O311	O31	0.908200	0.545700	0.907400
O321	O32	0.073600	0.192000	0.862400
O331	O33	0.012000	0.060000	0.733100
O341	O34	0.301700	0.652300	0.883400
O351	O35	0.351300	0.365600	0.801500
O361	O36	0.795900	0.595600	0.015800
O371	O37	0.558200	0.759700	0.856600
O381	O38	0.923000	0.901300	0.845300
O391	O39	0.613400	0.480000	0.776700
O401	O40	0.751200	0.161000	0.799700
H41	H4	0.756200	0.257600	0.781000
C101	C10	0.914100	0.542600	0.978600
C111	C11	0.440700	0.643900	0.852400
C121	C12	0.470500	0.481000	0.805300
