data_WORKUL_clean_PM
_symmetry_space_group_name_H-M	'P1'
_cell_length_a	19.278000
_cell_length_b	19.593000
_cell_length_c	20.046000
_cell_angle_alpha	70.650000
_cell_angle_beta	70.050000
_cell_angle_gamma	69.860000
_symmetry_Int_Tables_number 1

loop_
_symmetry_equiv_pos_as_xyz
'x,y,z'

loop_
_atom_site_label
_atom_site_type_symbol
_atom_site_fract_x
_atom_site_fract_y
_atom_site_fract_z
Zn11	Zn1	0.625420	0.962520	0.642270
Zn21	Zn2	0.057950	0.530710	0.224750
Zn31	Zn3	0.187550	0.541720	0.076520
Zn41	Zn4	0.216620	0.546820	0.224070
Zn51	Zn5	0.636170	0.117520	0.664580
Zn61	Zn6	0.644380	0.965720	0.788820
Zn71	Zn7	0.207000	0.394670	0.208030
Zn81	Zn8	0.779500	0.972590	0.652190
H11	H1	0.930600	0.669100	0.351600
H21	H2	0.472200	0.740200	0.046200
H31	H3	0.449600	0.133800	0.386400
H41	H4	0.315300	0.241700	0.075300
H51	H5	0.918900	0.829900	0.521500
H61	H6	0.512100	0.065500	0.475100
H71	H7	0.322900	0.430100	0.911500
H81	H8	0.404100	0.372300	0.477700
H91	H9	0.464300	0.238100	0.800300
H101	H10	0.381900	0.116700	0.045600
H111	H11	0.797400	0.730200	0.428000
H121	H12	0.326500	0.677000	0.940900
H131	H13	0.117800	0.696600	0.371100
H141	H14	0.921500	0.105600	0.466600
H151	H15	0.791500	0.762600	0.064100
H161	H16	0.045900	0.762800	0.456700
H171	H17	0.095700	0.228200	0.295700
H181	H18	0.400700	0.362500	0.828800
H191	H19	0.464800	0.049500	0.962500
H201	H20	0.798500	0.360400	0.448500
H211	H21	0.032800	0.137600	0.376300
H221	H22	0.333500	0.442700	0.393400
H231	H23	0.482200	0.252000	0.535000
H241	H24	0.957700	0.861500	0.765200
H251	H25	0.381400	0.752800	0.818600
H261	H26	0.773000	0.837700	0.938800
H271	H27	0.726200	0.811300	0.497900
H281	H28	0.390300	0.665800	0.117100
H291	H29	0.909800	0.392300	0.358100
H301	H30	0.056300	0.708500	0.961500
H311	H31	0.037100	0.785800	0.838700
H321	H32	0.873000	0.675900	0.128500
H331	H33	0.528900	0.812500	0.921500
H341	H34	0.462000	0.824800	0.746000
H351	H35	0.366000	0.253800	0.331500
H361	H36	0.735600	0.269800	0.529000
C11	C1	0.063900	0.704500	0.385900
C21	C2	0.458700	0.807000	0.796900
C31	C3	0.472600	0.228400	0.505800
C41	C4	0.822300	0.752100	0.445700
C51	C5	0.770700	0.877200	0.570900
C61	C6	0.382100	0.337700	0.878200
C71	C7	0.311100	0.342000	0.002500
C81	C8	0.374400	0.278400	0.360600
C91	C9	0.822600	0.179200	0.505400
C101	C10	0.870600	0.783200	0.964700
C111	C11	0.502200	0.152400	0.513400
C121	C12	0.331600	0.265200	0.025000
C131	C13	0.533800	0.093400	0.822000
C141	C14	0.448700	0.102600	0.947100
C151	C15	0.953400	0.688800	0.373700
C161	C16	0.354700	0.390400	0.397600
C171	C17	0.449800	0.214200	0.850700
C181	C18	0.817800	0.824300	0.522000
C191	C19	0.020700	0.745500	0.434700
C201	C20	0.337600	0.377000	0.927100
C211	C21	0.075300	0.624100	0.305000
C221	C22	0.802800	0.902700	0.800100
C231	C23	0.393500	0.685000	0.066200
C241	C24	0.897400	0.286800	0.409700
C251	C25	0.844500	0.749600	0.040600
C261	C26	0.442700	0.728200	0.024300
C271	C27	0.854400	0.855800	0.847000
C281	C28	0.343200	0.354600	0.351800
C291	C29	0.402100	0.735700	0.916000
C301	C30	0.476400	0.138600	0.872900
C311	C31	0.895200	0.808600	0.501800
C321	C32	0.903600	0.734500	0.424100
C331	C33	0.780300	0.796900	0.488700
C341	C34	0.933900	0.211100	0.415000
C351	C35	0.558500	0.873300	0.781100
C361	C36	0.453100	0.158500	0.418200
C371	C37	0.270000	0.387600	0.059300
C381	C38	0.396700	0.348100	0.447600
C391	C39	0.449700	0.755200	0.947300
C401	C40	0.002500	0.717400	0.980800
C411	C41	0.787200	0.118100	0.558700
C421	C42	0.983300	0.797700	0.858700
C431	C43	0.375800	0.221400	0.975500
C441	C44	0.491800	0.118100	0.469500
C451	C45	0.941400	0.764100	0.454900
C461	C46	0.504400	0.825200	0.828500
C471	C47	0.400000	0.142300	0.996500
C481	C48	0.054500	0.372500	0.278300
C491	C49	0.296100	0.398200	0.299100
C501	C50	0.417200	0.236800	0.409700
C511	C51	0.401600	0.257600	0.900300
C521	C52	0.786100	0.254800	0.500000
C531	C53	0.411100	0.764400	0.840600
C541	C54	0.355000	0.691800	0.961500
C551	C55	0.937300	0.840800	0.815400
C561	C56	0.934800	0.340600	0.361800
C571	C57	0.027700	0.673000	0.356700
C581	C58	0.971600	0.680800	0.052900
C591	C59	0.045200	0.243100	0.324700
C601	C60	0.498600	0.799600	0.901200
C611	C61	0.826900	0.826500	0.919300
C621	C62	0.026800	0.628800	0.098600
C631	C63	0.823500	0.308600	0.452100
C641	C64	0.428500	0.272000	0.455800
C651	C65	0.008700	0.318700	0.319300
C661	C66	0.896500	0.157300	0.462900
C671	C67	0.951900	0.768600	0.936500
C681	C68	0.293400	0.622100	0.081500
C691	C69	0.893800	0.699600	0.079400
C701	C70	0.548800	0.107500	0.568800
C711	C71	0.346600	0.668300	0.034700
C721	C72	0.007800	0.189300	0.372600
O11	O1	0.258100	0.353200	0.123900
O21	O2	0.144200	0.613100	0.286100
O31	O3	0.700000	0.896400	0.581800
O41	O4	0.718800	0.144100	0.581600
O51	O5	0.260300	0.600000	0.050600
O61	O6	0.729100	0.919100	0.831600
O71	O7	0.807000	0.894500	0.601900
O81	O8	0.566400	0.026700	0.850100
O91	O9	0.246800	0.457700	0.034700
O101	O10	0.039600	0.588200	0.289000
O111	O11	0.095200	0.623600	0.069100
O121	O12	0.286500	0.603900	0.151800
O131	O13	0.168900	0.503700	0.183700
O141	O14	0.023500	0.441900	0.261700
O151	O15	0.827800	0.049500	0.578700
O161	O16	0.275000	0.469500	0.289000
O171	O17	0.126900	0.342900	0.262800
O181	O18	0.601600	0.881400	0.812200
O191	O19	0.670200	0.005200	0.685200
O201	O20	0.277800	0.362300	0.268400
O211	O21	0.830100	0.921100	0.730800
O221	O22	0.558300	0.901300	0.716200
O231	O23	0.566300	0.140800	0.601000
O241	O24	0.547700	0.123700	0.754600
O251	O25	0.996300	0.596700	0.160700
O261	O26	0.565500	0.035700	0.578600
Zn91	Zn9	0.374580	0.037480	0.357730
Zn101	Zn10	0.355620	0.034280	0.211180
Zn111	Zn11	0.783380	0.453180	0.775930
Zn121	Zn12	0.942050	0.469290	0.775250
Zn131	Zn13	0.793000	0.605330	0.791970
Zn141	Zn14	0.220500	0.027410	0.347810
Zn151	Zn15	0.363830	0.882480	0.335420
Zn161	Zn16	0.812450	0.458280	0.923480
H371	H37	0.677100	0.569900	0.088500
H381	H38	0.904300	0.771800	0.704300
H391	H39	0.127000	0.324100	0.871500
H401	H40	0.227000	0.162300	0.061200
H411	H41	0.471100	0.187500	0.078500
H421	H42	0.208500	0.237400	0.935900
H431	H43	0.962900	0.214200	0.161300
H441	H44	0.527800	0.259800	0.953800
H451	H45	0.618100	0.883300	0.954400
H461	H46	0.595900	0.627700	0.522300
H471	H47	0.666500	0.557300	0.606600
H481	H48	0.618600	0.247200	0.181400
H491	H49	0.882200	0.303400	0.628900
H501	H50	0.535700	0.761900	0.199700
H511	H51	0.673500	0.323000	0.059100
H521	H52	0.599300	0.637500	0.171200
H531	H53	0.201500	0.639600	0.551500
H541	H54	0.943700	0.291500	0.038500
H551	H55	0.535200	0.950500	0.037500
H561	H56	0.609700	0.334200	0.882900
H571	H57	0.273800	0.188700	0.502100
H581	H58	0.684700	0.758300	0.924700
H591	H59	0.078500	0.894400	0.533400
H601	H60	0.487900	0.934500	0.524900
H611	H61	0.550400	0.866200	0.613600
H621	H62	0.069400	0.330900	0.648400
H631	H63	0.517800	0.748000	0.465000
H641	H64	0.634000	0.746200	0.668500
H651	H65	0.967200	0.862400	0.623700
H661	H66	0.090200	0.607700	0.641900
H671	H67	0.042300	0.138500	0.234800
H681	H68	0.954100	0.237200	0.543300
H691	H69	0.264400	0.730200	0.471000
H701	H70	0.202600	0.269800	0.572000
H711	H71	0.081100	0.170100	0.478500
H721	H72	0.538000	0.175200	0.254000
C731	C73	0.991300	0.681300	0.680700
C741	C74	0.625600	0.721600	0.639400
C751	C75	0.197200	0.097300	0.199900
C761	C76	0.177400	0.820800	0.494600
C771	C77	0.173100	0.173500	0.080700
C781	C78	0.212800	0.881900	0.441300
C791	C79	0.527400	0.771600	0.494200
C801	C80	0.645300	0.609600	0.602400
C811	C81	0.662400	0.623000	0.072900
C821	C82	0.551300	0.897400	0.052900
C831	C83	0.451200	0.892500	0.431200
C841	C84	0.582800	0.763200	0.590300
C851	C85	0.603300	0.651900	0.552400
C861	C86	0.466200	0.906600	0.178000
C871	C87	0.102600	0.713200	0.590300
C881	C88	0.954800	0.756900	0.675300
C891	C89	0.065200	0.659400	0.638200
C901	C90	0.571500	0.728000	0.544200
C911	C91	0.972300	0.327000	0.643300
C921	C92	0.703900	0.601800	0.700900
C931	C93	0.992200	0.810700	0.627400
C941	C94	0.653400	0.331700	0.965300
C951	C95	0.550200	0.785800	0.149300
C961	C96	0.219700	0.203100	0.511300
C971	C97	0.048100	0.231400	0.063500
C981	C98	0.066100	0.788900	0.585000
C991	C99	0.497800	0.847600	0.486600
C1001	C100	0.501400	0.200400	0.098800
C1011	C101	0.177700	0.247900	0.554300
C1021	C102	0.645000	0.308200	0.038500
C1031	C103	0.062700	0.159200	0.184600
C1041	C104	0.103500	0.842700	0.537100
C1051	C105	0.624200	0.778600	0.024500
C1061	C106	0.182200	0.175700	0.478000
C1071	C107	0.096400	0.265500	0.575900
C1081	C108	0.104800	0.191400	0.498200
C1091	C109	0.541300	0.193000	0.203100
C1101	C110	0.997500	0.282600	0.019200
C1111	C111	0.936100	0.295500	0.614100
C1121	C112	0.924700	0.375900	0.695000
C1131	C113	0.668400	0.734800	0.975000
C1141	C114	0.598400	0.742400	0.099700
C1151	C115	0.058600	0.235900	0.545100
C1161	C116	0.129400	0.216800	0.035300
C1171	C117	0.441500	0.126700	0.218900
C1181	C118	0.706600	0.377900	0.918500
C1191	C119	0.606500	0.315000	0.933800
C1201	C120	0.495600	0.174800	0.171500
C1211	C121	0.557300	0.271800	0.975700
C1221	C122	0.945500	0.627500	0.721700
C1231	C123	0.730000	0.612400	0.940700
C1241	C124	0.508200	0.881900	0.530500
C1251	C125	0.979300	0.254500	0.565300
C1261	C126	0.046600	0.311200	0.626300
C1271	C127	0.523600	0.861400	0.127100
C1281	C128	0.550300	0.244800	0.052700
C1291	C129	0.229300	0.122800	0.429100
C1301	C130	0.145600	0.144200	0.153000
C1311	C131	0.155500	0.250400	0.959400
C1321	C132	0.973200	0.371200	0.901400
C1331	C133	0.617900	0.662300	0.121800
C1341	C134	0.588900	0.235600	0.159400
C1351	C135	0.546900	0.841500	0.581800
C1361	C136	0.213900	0.745200	0.500000
C1371	C137	0.597900	0.264300	0.084000
C1381	C138	0.176500	0.691400	0.547900
C1391	C139	0.106200	0.300400	0.920600
C1401	C140	0.016700	0.202300	0.141300
C1411	C141	0.600000	0.857700	0.003500
C1421	C142	0.688900	0.658000	0.997500
C1431	C143	0.656800	0.645400	0.648200
C1441	C144	0.028400	0.319200	0.947100
O271	O27	0.753200	0.542300	0.965300
O281	O28	0.003700	0.403300	0.839300
O291	O29	0.193000	0.105500	0.398100
O301	O30	0.270900	0.080900	0.168400
O311	O31	0.722200	0.637700	0.731600
O321	O32	0.831100	0.496300	0.816300
O331	O33	0.434500	0.964300	0.421400
O341	O34	0.441700	0.098700	0.283800
O351	O35	0.300000	0.103600	0.418200
O361	O36	0.169900	0.078900	0.269200
O371	O37	0.739700	0.400000	0.949400
O381	O38	0.433600	0.973300	0.149900
O391	O39	0.172200	0.950500	0.421300
O401	O40	0.976500	0.558100	0.738300
O411	O41	0.741900	0.646800	0.876100
O421	O42	0.904800	0.376400	0.930900
O431	O43	0.433700	0.859200	0.399000
O441	O44	0.452300	0.876300	0.245400
O451	O45	0.329800	0.994800	0.314800
O461	O46	0.398400	0.118600	0.187800
O471	O47	0.873100	0.657100	0.737200
O481	O48	0.713500	0.396100	0.848200
O491	O49	0.960400	0.411800	0.711000
O501	O50	0.855800	0.386900	0.713900
O511	O51	0.725000	0.530500	0.711000
O521	O52	0.281200	0.855900	0.418400
