data_WORREC_clean_PM
_symmetry_space_group_name_H-M	'P1'
_cell_length_a	10.006200
_cell_length_b	15.387400
_cell_length_c	15.387400
_cell_angle_alpha	75.430300
_cell_angle_beta	71.025900
_cell_angle_gamma	71.025900
_symmetry_Int_Tables_number 1

loop_
_symmetry_equiv_pos_as_xyz
'x,y,z'

loop_
_atom_site_label
_atom_site_type_symbol
_atom_site_fract_x
_atom_site_fract_y
_atom_site_fract_z
Cu11	Cu1	0.099870	0.454540	0.045460
Cu21	Cu2	0.900130	0.545460	0.954540
Cu31	Cu3	0.900130	0.954540	0.545460
Cu41	Cu4	0.099870	0.045460	0.454540
H11	H1	0.403500	0.439600	0.759000
H21	H2	0.189700	0.676500	0.561300
H31	H3	0.000000	0.121600	0.878400
H41	H4	0.897900	0.939600	0.259000
H51	H5	0.810300	0.438700	0.323500
H61	H6	0.189700	0.561300	0.676500
H71	H7	0.403500	0.759000	0.439600
H81	H8	0.596500	0.560400	0.241000
H91	H9	0.810300	0.323500	0.438700
H101	H10	0.072500	0.176500	0.061300
H111	H11	0.927500	0.823500	0.938700
H121	H12	0.897900	0.259000	0.939600
H131	H13	0.000000	0.878400	0.121600
H141	H14	0.102100	0.741000	0.060400
H151	H15	0.072500	0.061300	0.176500
H161	H16	0.596500	0.241000	0.560400
H171	H17	0.500000	0.378400	0.621600
H181	H18	0.102100	0.060400	0.741000
H191	H19	0.500000	0.621600	0.378400
H201	H20	0.927500	0.938700	0.823500
C11	C1	0.000000	0.927800	0.072200
C21	C2	0.953640	0.257760	0.978160
C31	C3	0.192470	0.847530	0.490530
C41	C4	0.310440	0.757760	0.478160
C51	C5	0.282840	0.522060	0.676060
C61	C6	0.019040	0.022060	0.176060
C71	C7	0.030530	0.009470	0.652470
C81	C8	0.011070	0.011430	0.084230
C91	C9	0.689560	0.521840	0.242240
C101	C10	0.980960	0.977940	0.823940
C111	C11	0.282840	0.676060	0.522060
C121	C12	0.980960	0.823940	0.977940
C131	C13	0.807530	0.509470	0.152470
C141	C14	0.606730	0.488570	0.415770
C151	C15	0.310440	0.478160	0.757760
C161	C16	0.030530	0.652470	0.009470
C171	C17	0.689560	0.242240	0.521840
C181	C18	0.046360	0.742240	0.021840
C191	C19	0.988930	0.988570	0.915770
C201	C20	0.500000	0.572200	0.427800
C211	C21	0.717160	0.477940	0.323940
C221	C22	0.969470	0.347530	0.990530
C231	C23	0.192470	0.490530	0.847530
C241	C24	0.046360	0.021840	0.742240
C251	C25	0.393270	0.511430	0.584230
C261	C26	0.011070	0.084230	0.011430
C271	C27	0.606730	0.415770	0.488570
C281	C28	0.500000	0.427800	0.572200
C291	C29	0.988930	0.915770	0.988570
C301	C30	0.953640	0.978160	0.257760
C311	C31	0.717160	0.323940	0.477940
C321	C32	0.807530	0.152470	0.509470
C331	C33	0.000000	0.072200	0.927800
C341	C34	0.393270	0.584230	0.511430
C351	C35	0.969470	0.990530	0.347530
C361	C36	0.019040	0.176060	0.022060
O11	O1	0.764360	0.547060	0.078820
O21	O2	0.933640	0.468070	0.155650
O31	O3	0.942640	0.968070	0.655650
O41	O4	0.764360	0.078820	0.547060
O51	O5	0.066360	0.844350	0.531930
O61	O6	0.890240	0.952940	0.421180
O71	O7	0.942640	0.655650	0.968070
O81	O8	0.057360	0.344350	0.031930
O91	O9	0.890240	0.421180	0.952940
O101	O10	0.109760	0.047060	0.578820
O111	O11	0.235640	0.921180	0.452940
O121	O12	0.109760	0.578820	0.047060
O131	O13	0.066360	0.531930	0.844350
O141	O14	0.235640	0.452940	0.921180
O151	O15	0.933640	0.155650	0.468070
O161	O16	0.057360	0.031930	0.344350
