data_WOTLOI_clean_PM
_symmetry_space_group_name_H-M	'P1'
_cell_length_a	11.394500
_cell_length_b	14.884300
_cell_length_c	15.869000
_cell_angle_alpha	64.690000
_cell_angle_beta	89.747000
_cell_angle_gamma	89.661000
_symmetry_Int_Tables_number 1

loop_
_symmetry_equiv_pos_as_xyz
'x,y,z'

loop_
_atom_site_label
_atom_site_type_symbol
_atom_site_fract_x
_atom_site_fract_y
_atom_site_fract_z
Cu11	Cu1	0.893750	0.637590	0.357540
C11	C1	0.339400	0.639400	0.858300
H11	H1	0.365200	0.692100	0.870000
C21	C2	0.310300	0.498100	0.863300
H21	H2	0.313000	0.429800	0.882000
C31	C3	0.229100	0.740400	0.712000
H31	H3	0.157900	0.728200	0.685300
H41	H4	0.211600	0.789700	0.735000
C41	C4	0.321200	0.778200	0.639600
C51	C5	0.322200	0.758200	0.564100
H51	H5	0.259700	0.723100	0.555700
C61	C6	0.409100	0.786500	0.500600
H61	H6	0.406500	0.768900	0.451000
C71	C7	0.501400	0.841100	0.508300
C81	C8	0.501400	0.863100	0.579800
H71	H7	0.563100	0.900400	0.586100
C91	C9	0.412100	0.832800	0.647300
H81	H8	0.415200	0.850000	0.697100
C101	C10	0.701400	0.752000	0.398100
H91	H9	0.661000	0.766400	0.343000
C111	C11	0.813700	0.694600	0.506800
H101	H10	0.871800	0.655300	0.546800
C121	C12	0.691200	0.627700	0.886800
H111	H11	0.712900	0.645500	0.934100
C131	C13	0.610300	0.560700	0.811600
H121	H12	0.559400	0.521900	0.795500
C141	C14	0.832300	0.737400	0.765600
H131	H13	0.799500	0.804000	0.740100
H141	H14	0.872100	0.728100	0.715700
C151	C15	0.922900	0.785000	0.886200
H151	H15	0.870600	0.838200	0.867800
C161	C16	0.919000	0.724600	0.842100
C171	C17	0.996000	0.641500	0.874800
H161	H16	0.995200	0.597300	0.847500
C181	C18	0.071000	0.626500	0.946300
H171	H17	0.120500	0.571400	0.967400
C191	C19	0.075900	0.690900	0.988400
C201	C20	0.000400	0.771600	0.956900
H181	H18	0.002000	0.816600	0.983400
C211	C21	0.160300	0.673000	0.065300
H191	H19	0.223000	0.629700	0.062900
H201	H20	0.194900	0.735600	0.057100
C221	C22	0.050500	0.673200	0.201100
H211	H21	0.053200	0.741000	0.184800
C231	C23	0.016000	0.524800	0.265600
H221	H22	0.986900	0.464200	0.308500
C241	C24	0.974300	0.845400	0.313000
H231	H23	0.906800	0.875700	0.280200
C251	C25	0.142200	0.827600	0.381200
H241	H24	0.212100	0.840600	0.403800
C261	C26	0.060800	0.993900	0.325200
H251	H25	0.006300	0.034700	0.277100
H261	H26	0.139100	0.020300	0.306300
C271	C27	0.029600	0.997900	0.415300
C281	C28	0.916100	0.014100	0.434600
H271	H27	0.858400	0.026600	0.389700
C291	C29	0.113400	0.988000	0.481300
H281	H28	0.192000	0.982500	0.468000
C301	C30	0.599700	0.873600	0.439900
H291	H29	0.567500	0.900200	0.377400
H301	H30	0.642000	0.926500	0.446500
N11	N1	0.368200	0.543000	0.908300
N21	N2	0.250100	0.558000	0.791500
N31	N3	0.269000	0.646800	0.790200
N41	N4	0.680200	0.794800	0.451200
N51	N5	0.755900	0.760900	0.524300
N61	N6	0.785900	0.685800	0.429100
N71	N7	0.610200	0.563500	0.894400
N81	N8	0.737400	0.663500	0.804300
N91	N9	0.689600	0.618300	0.755800
N101	N10	0.103000	0.627900	0.154700
N111	N11	0.079300	0.531800	0.196000
N121	N12	0.994400	0.608000	0.273100
N131	N13	0.999000	0.750700	0.343200
N141	N14	0.102600	0.740700	0.386800
N151	N15	0.056700	0.890900	0.335200
Cu21	Cu2	0.106250	0.362410	0.642460
C311	C31	0.660600	0.360600	0.141700
H311	H31	0.634800	0.307900	0.130000
C321	C32	0.689700	0.501900	0.136700
H321	H32	0.687000	0.570200	0.118000
C331	C33	0.770900	0.259600	0.288000
H331	H33	0.842100	0.271800	0.314700
H341	H34	0.788400	0.210300	0.265000
C341	C34	0.678800	0.221800	0.360400
C351	C35	0.677800	0.241800	0.435900
H351	H35	0.740300	0.276900	0.444300
C361	C36	0.590900	0.213500	0.499400
H361	H36	0.593500	0.231100	0.549000
C371	C37	0.498600	0.158900	0.491700
C381	C38	0.498600	0.136900	0.420200
H371	H37	0.436900	0.099600	0.413900
C391	C39	0.587900	0.167200	0.352700
H381	H38	0.584800	0.150000	0.302900
C401	C40	0.298600	0.248000	0.601900
H391	H39	0.339000	0.233600	0.657000
C411	C41	0.186300	0.305400	0.493200
H401	H40	0.128200	0.344700	0.453200
C421	C42	0.308800	0.372300	0.113200
H411	H41	0.287100	0.354500	0.065900
C431	C43	0.389700	0.439300	0.188400
H421	H42	0.440600	0.478100	0.204500
C441	C44	0.167700	0.262600	0.234400
H431	H43	0.200500	0.196000	0.259900
H441	H44	0.127900	0.271900	0.284300
C451	C45	0.077100	0.215000	0.113800
H451	H45	0.129400	0.161800	0.132200
C461	C46	0.081000	0.275400	0.157900
C471	C47	0.004000	0.358500	0.125200
H461	H46	0.004800	0.402700	0.152500
C481	C48	0.929000	0.373500	0.053700
H471	H47	0.879500	0.428600	0.032600
C491	C49	0.924100	0.309100	0.011600
C501	C50	0.999600	0.228400	0.043100
H481	H48	0.998000	0.183400	0.016600
C511	C51	0.839700	0.327000	0.934700
H491	H49	0.777000	0.370300	0.937100
H501	H50	0.805100	0.264400	0.942900
C521	C52	0.949500	0.326800	0.798900
H511	H51	0.946800	0.259000	0.815200
C531	C53	0.984000	0.475200	0.734400
H521	H52	0.013100	0.535800	0.691500
C541	C54	0.025700	0.154600	0.687000
H531	H53	0.093200	0.124300	0.719800
C551	C55	0.857800	0.172400	0.618800
H541	H54	0.787900	0.159400	0.596200
C561	C56	0.939200	0.006100	0.674800
H551	H55	0.993700	0.965300	0.722900
H561	H56	0.860900	0.979700	0.693700
C571	C57	0.970400	0.002100	0.584700
C581	C58	0.083900	0.985900	0.565400
H571	H57	0.141600	0.973400	0.610300
C591	C59	0.886600	0.012000	0.518700
H581	H58	0.808000	0.017500	0.532000
C601	C60	0.400300	0.126400	0.560100
H591	H59	0.432500	0.099800	0.622600
H601	H60	0.358000	0.073500	0.553500
N161	N16	0.631800	0.457000	0.091700
N171	N17	0.749900	0.442000	0.208500
N181	N18	0.731000	0.353200	0.209800
N191	N19	0.319800	0.205200	0.548800
N201	N20	0.244100	0.239100	0.475700
N211	N21	0.214100	0.314200	0.570900
N221	N22	0.389800	0.436500	0.105600
N231	N23	0.262600	0.336500	0.195700
N241	N24	0.310400	0.381700	0.244200
N251	N25	0.897000	0.372100	0.845300
N261	N26	0.920700	0.468200	0.804000
N271	N27	0.005600	0.392000	0.726900
N281	N28	0.001000	0.249300	0.656800
N291	N29	0.897400	0.259300	0.613200
N301	N30	0.943300	0.109100	0.664800
Cu31	Cu3	0.500000	0.500000	0.000000
Cl11	Cl1	0.000000	0.500000	0.500000
