data_WOTSEF_clean_PM
_symmetry_space_group_name_H-M	'P1'
_cell_length_a	10.421500
_cell_length_b	10.532300
_cell_length_c	22.247700
_cell_angle_alpha	90.000000
_cell_angle_beta	90.000000
_cell_angle_gamma	90.000000
_symmetry_Int_Tables_number 1

loop_
_symmetry_equiv_pos_as_xyz
'x,y,z'

loop_
_atom_site_label
_atom_site_type_symbol
_atom_site_fract_x
_atom_site_fract_y
_atom_site_fract_z
Cd11	Cd1	0.020590	0.580510	0.903260
Cd21	Cd2	0.979410	0.080510	0.596740
H11	H1	0.718900	0.914500	0.607200
H21	H2	0.771900	0.455100	0.680400
H31	H3	0.228100	0.955100	0.819600
H41	H4	0.625500	0.412100	0.536700
H51	H5	0.656500	0.447200	0.635300
H61	H6	0.281100	0.414500	0.892800
H71	H7	0.782000	0.519700	0.617100
H81	H8	0.727500	0.674000	0.744900
H91	H9	0.005000	0.930800	0.719100
H101	H10	0.633800	0.140900	0.418100
H111	H11	0.626900	0.752400	0.659500
H121	H12	0.995000	0.430800	0.780900
H131	H13	0.218000	0.019700	0.882900
H141	H14	0.374500	0.912100	0.963300
H151	H15	0.222000	0.532900	0.024100
H161	H16	0.778000	0.032900	0.475900
H171	H17	0.343500	0.947200	0.864700
H181	H18	0.272500	0.174000	0.755100
H191	H19	0.373100	0.252400	0.840500
H201	H20	0.366200	0.640900	0.081900
C11	C1	0.295800	0.286900	0.827530
C21	C2	0.748900	0.111800	0.488760
C31	C3	0.748300	0.448300	0.638810
C41	C4	0.749200	0.272300	0.557760
C51	C5	0.657900	0.335000	0.523020
C61	C6	0.250800	0.772300	0.942240
C71	C7	0.251700	0.948300	0.861190
C81	C8	0.071800	0.393400	0.792780
C91	C9	0.661400	0.176500	0.454110
C101	C10	0.121600	0.295600	0.758120
C111	C11	0.056200	0.249500	0.702510
C121	C12	0.338600	0.676500	0.045890
C131	C13	0.236500	0.240700	0.776690
C141	C14	0.943800	0.749500	0.797490
C151	C15	0.704200	0.786900	0.672470
C161	C16	0.342100	0.835000	0.976980
C171	C17	0.802200	0.328100	0.613250
C181	C18	0.928200	0.893400	0.707220
C191	C19	0.878400	0.795600	0.741880
C201	C20	0.239900	0.383700	0.858690
C211	C21	0.197800	0.828100	0.886750
C221	C22	0.763500	0.740700	0.723310
C231	C23	0.760100	0.883700	0.641310
C241	C24	0.251100	0.611800	0.011240
N11	N1	0.384900	0.788900	0.029080
N21	N2	0.615100	0.288900	0.470920
N31	N3	0.955000	0.318300	0.686490
N41	N4	0.101000	0.769300	0.863980
N51	N5	0.793100	0.159500	0.540290
N61	N6	0.206900	0.659500	0.959710
N71	N7	0.129000	0.436200	0.842460
N81	N8	0.045000	0.818300	0.813510
N91	N9	0.871000	0.936200	0.657540
N101	N10	0.899000	0.269300	0.636020
O11	O1	0.102450	0.153100	0.676480
O21	O2	0.897550	0.653100	0.823520
Cd31	Cd3	0.520590	0.919490	0.096740
Cd41	Cd4	0.479410	0.419490	0.403260
H211	H21	0.156500	0.052800	0.364700
H221	H22	0.495000	0.069200	0.219100
H231	H23	0.843500	0.552800	0.135300
H241	H24	0.126900	0.747600	0.340500
H251	H25	0.278000	0.467100	0.524100
H261	H26	0.227500	0.826000	0.255100
H271	H27	0.728100	0.544900	0.180400
H281	H28	0.125500	0.087900	0.463300
H291	H29	0.874500	0.587900	0.036700
H301	H30	0.781100	0.085500	0.107200
H311	H31	0.271900	0.044900	0.319600
H321	H32	0.282000	0.980300	0.382900
H331	H33	0.718000	0.480300	0.117100
H341	H34	0.218900	0.585500	0.392800
H351	H35	0.722000	0.967100	0.975900
H361	H36	0.866200	0.859100	0.918100
H371	H37	0.772500	0.326000	0.244900
H381	H38	0.505000	0.569200	0.280900
H391	H39	0.133800	0.359100	0.581900
H401	H40	0.873100	0.247600	0.159500
C251	C25	0.751100	0.888200	0.988760
C261	C26	0.739900	0.116300	0.141310
C271	C27	0.428200	0.606600	0.292780
C281	C28	0.795800	0.213100	0.172470
C291	C29	0.248900	0.388200	0.511240
C301	C30	0.838600	0.823500	0.954110
C311	C31	0.204200	0.713100	0.327530
C321	C32	0.378400	0.704400	0.258120
C331	C33	0.157900	0.165000	0.476980
C341	C34	0.263500	0.759300	0.276690
C351	C35	0.249200	0.227700	0.442240
C361	C36	0.260100	0.616300	0.358690
C371	C37	0.751700	0.551700	0.138810
C381	C38	0.302200	0.171900	0.386750
C391	C39	0.736500	0.259300	0.223310
C401	C40	0.697800	0.671900	0.113250
C411	C41	0.750800	0.727700	0.057760
C421	C42	0.443800	0.750500	0.202510
C431	C43	0.621600	0.204400	0.241880
C441	C44	0.571800	0.106600	0.207220
C451	C45	0.161400	0.323500	0.545890
C461	C46	0.248300	0.051700	0.361190
C471	C47	0.556200	0.250500	0.297490
C481	C48	0.842100	0.665000	0.023020
N111	N11	0.706900	0.840500	0.040290
N121	N12	0.293100	0.340500	0.459710
N131	N13	0.115100	0.211100	0.529080
N141	N14	0.884900	0.711100	0.970920
N151	N15	0.371000	0.563800	0.342460
N161	N16	0.399000	0.230700	0.363980
N171	N17	0.629000	0.063800	0.157540
N181	N18	0.545000	0.681700	0.186490
N191	N19	0.601000	0.730700	0.136020
N201	N20	0.455000	0.181700	0.313510
O31	O3	0.397550	0.846900	0.176480
O41	O4	0.602450	0.346900	0.323520
