data_WOWBER_clean_PM
_symmetry_space_group_name_H-M	'P1'
_cell_length_a	6.682000
_cell_length_b	11.048300
_cell_length_c	17.638000
_cell_angle_alpha	107.833000
_cell_angle_beta	90.000000
_cell_angle_gamma	90.000000
_symmetry_Int_Tables_number 1

loop_
_symmetry_equiv_pos_as_xyz
'x,y,z'

loop_
_atom_site_label
_atom_site_type_symbol
_atom_site_fract_x
_atom_site_fract_y
_atom_site_fract_z
Cd11	Cd1	0.996470	0.534680	0.409730
Cd21	Cd2	0.503530	0.534680	0.909730
Cd31	Cd3	0.496470	0.465320	0.090270
Cd41	Cd4	0.500000	0.500000	0.500000
Cd51	Cd5	0.000000	0.500000	0.000000
Cd61	Cd6	0.003530	0.465320	0.590270
H11	H1	0.693000	0.358000	0.952000
H21	H2	0.655100	0.169800	0.294800
H31	H3	0.616100	0.149800	0.443300
H41	H4	0.807000	0.358000	0.452000
H51	H5	0.266200	0.997300	0.816600
H61	H6	0.009800	0.061600	0.422200
H71	H7	0.490200	0.061600	0.922200
H81	H8	0.990200	0.938400	0.577800
H91	H9	0.883900	0.149800	0.943300
H101	H10	0.383900	0.850200	0.556700
H111	H11	0.233800	0.997300	0.316600
H121	H12	0.509800	0.938400	0.077800
H131	H13	0.871900	0.789300	0.803200
H141	H14	0.344900	0.830200	0.705200
H151	H15	0.628100	0.789300	0.303200
H161	H16	0.116100	0.850200	0.056700
H171	H17	0.128100	0.210700	0.196800
H181	H18	0.733800	0.002700	0.183400
H191	H19	0.766200	0.002700	0.683400
H201	H20	0.844900	0.169800	0.794800
H211	H21	0.307000	0.642000	0.048000
H221	H22	0.193000	0.642000	0.548000
H231	H23	0.371900	0.210700	0.696800
H241	H24	0.155100	0.830200	0.205200
C11	C1	0.382300	0.207500	0.257300
C21	C2	0.478100	0.006200	0.122400
C31	C3	0.667600	0.744800	0.455800
C41	C4	0.435100	0.855500	0.747200
C51	C5	0.297000	0.070000	0.126100
C61	C6	0.418900	0.122500	0.523700
C71	C7	0.674500	0.684700	0.669900
C81	C8	0.978100	0.993800	0.377600
C91	C9	0.112100	0.955400	0.314000
C101	C10	0.117700	0.207500	0.757300
C111	C11	0.081100	0.122500	0.023700
C121	C12	0.174500	0.315300	0.830100
C131	C13	0.703000	0.930000	0.873900
C141	C14	0.332400	0.255200	0.544200
C151	C15	0.203000	0.070000	0.626100
C161	C16	0.249700	0.169200	0.693900
C171	C17	0.887900	0.044600	0.686000
C181	C18	0.069100	0.910900	0.034300
C191	C19	0.935100	0.144500	0.752800
C201	C20	0.612100	0.044600	0.186000
C211	C21	0.325500	0.315300	0.330100
C221	C22	0.521900	0.993800	0.877600
C231	C23	0.825500	0.684700	0.169900
C241	C24	0.021900	0.006200	0.622400
C251	C25	0.832400	0.744800	0.955800
C261	C26	0.930900	0.089100	0.965700
C271	C27	0.167600	0.255200	0.044200
C281	C28	0.750300	0.830800	0.306100
C291	C29	0.564900	0.144500	0.252800
C301	C30	0.581100	0.877500	0.476300
C311	C31	0.430900	0.910900	0.534300
C321	C32	0.250300	0.169200	0.193900
C331	C33	0.569100	0.089100	0.465700
C341	C34	0.918900	0.877500	0.976300
C351	C35	0.882300	0.792500	0.242700
C361	C36	0.797000	0.930000	0.373900
C371	C37	0.649600	0.966900	0.440700
C381	C38	0.350400	0.033100	0.559300
C391	C39	0.850400	0.966900	0.940700
C401	C40	0.387900	0.955400	0.814000
C411	C41	0.749700	0.830800	0.806100
C421	C42	0.617700	0.792500	0.742700
C431	C43	0.064900	0.855500	0.247200
C441	C44	0.149600	0.033100	0.059300
O11	O1	0.814100	0.431600	0.478230
O21	O2	0.444800	0.341500	0.387200
O31	O3	0.148700	0.267300	0.538560
O41	O4	0.555200	0.658500	0.612800
O51	O5	0.055200	0.341500	0.887200
O61	O6	0.456300	0.345100	0.565300
O71	O7	0.351300	0.267300	0.038560
O81	O8	0.163700	0.367300	0.329700
O91	O9	0.185900	0.568400	0.521770
O101	O10	0.956300	0.654900	0.934700
O111	O11	0.043700	0.345100	0.065300
O121	O12	0.336300	0.367300	0.829700
O131	O13	0.944800	0.658500	0.112800
O141	O14	0.663700	0.632700	0.170300
O151	O15	0.685900	0.431600	0.978230
O161	O16	0.851300	0.732700	0.461440
O171	O17	0.543700	0.654900	0.434700
O181	O18	0.314100	0.568400	0.021770
O191	O19	0.836300	0.632700	0.670300
O201	O20	0.648700	0.732700	0.961440
