data_WOWGUK_clean_PM
_symmetry_space_group_name_H-M	'P1'
_cell_length_a	5.201600
_cell_length_b	13.602400
_cell_length_c	17.239400
_cell_angle_alpha	97.869000
_cell_angle_beta	93.302000
_cell_angle_gamma	91.828000
_symmetry_Int_Tables_number 1

loop_
_symmetry_equiv_pos_as_xyz
'x,y,z'

loop_
_atom_site_label
_atom_site_type_symbol
_atom_site_fract_x
_atom_site_fract_y
_atom_site_fract_z
Zn11	Zn1	0.163600	0.783260	0.653290
Zn21	Zn2	0.795400	0.946540	0.573090
Zn31	Zn3	0.275900	0.625610	0.499540
Zn41	Zn4	0.780000	0.996500	0.903520
P11	P1	0.690900	0.870070	0.733090
P21	P2	0.249000	0.852790	0.489660
P31	P3	0.812800	0.587690	0.593110
P41	P4	0.723300	0.884300	0.051050
O11	O1	0.504000	0.780400	0.701200
O21	O2	0.961900	0.826900	0.739300
O31	O3	0.077700	0.647400	0.597200
O41	O4	0.118900	0.867400	0.569800
O51	O5	0.535100	0.875800	0.500800
O61	O6	0.110800	0.918600	0.437700
O71	O7	0.679700	0.948500	0.678500
O81	O8	0.633500	0.623800	0.531800
O91	O9	0.204900	0.743800	0.451600
O101	O10	0.862600	0.479400	0.578400
O111	O11	0.829900	0.891700	0.971500
O121	O12	0.612000	0.914100	0.814000
O131	O13	0.437700	0.901600	0.050900
O141	O14	0.881900	0.950700	0.115700
O151	O15	0.705200	0.608500	0.676400
O161	O16	0.744800	0.772300	0.066600
Zn51	Zn5	0.836400	0.216740	0.346710
Zn61	Zn6	0.204600	0.053460	0.426910
Zn71	Zn7	0.724100	0.374390	0.500460
Zn81	Zn8	0.220000	0.003500	0.096480
P51	P5	0.309100	0.129930	0.266910
P61	P6	0.751000	0.147210	0.510340
P71	P7	0.187200	0.412310	0.406890
P81	P8	0.276700	0.115700	0.948950
O171	O17	0.496000	0.219600	0.298800
O181	O18	0.038100	0.173100	0.260700
O191	O19	0.922300	0.352600	0.402800
O201	O20	0.881100	0.132600	0.430200
O211	O21	0.464900	0.124200	0.499200
O221	O22	0.889200	0.081400	0.562300
O231	O23	0.320300	0.051500	0.321500
O241	O24	0.366500	0.376200	0.468200
O251	O25	0.795100	0.256200	0.548400
O261	O26	0.137400	0.520600	0.421600
O271	O27	0.170100	0.108300	0.028500
O281	O28	0.388000	0.085900	0.186000
O291	O29	0.562300	0.098400	0.949100
O301	O30	0.118100	0.049300	0.884300
O311	O31	0.294800	0.391500	0.323600
O321	O32	0.255200	0.227700	0.933400
N11	N1	0.767700	0.196800	0.118700
N21	N2	0.731000	0.746000	0.362300
C11	C1	0.694000	0.301800	0.119500
C21	C2	0.928000	0.368700	0.123000
C31	C3	0.861000	0.480000	0.137000
C41	C4	0.746000	0.509800	0.217000
C51	C5	0.784000	0.617000	0.248400
C61	C6	0.650000	0.642900	0.323700
H11	H1	0.609500	0.152400	0.115500
H21	H2	0.874100	0.190900	0.168000
H31	H3	0.870500	0.176900	0.072300
H41	H4	0.641000	0.762400	0.411900
H51	H5	0.922000	0.749800	0.374600
H61	H6	0.685000	0.794500	0.325600
H71	H7	0.592000	0.321900	0.165900
H81	H8	0.588000	0.307900	0.070300
H91	H9	0.044000	0.355500	0.168300
H101	H10	0.018000	0.354000	0.073300
H111	H11	0.020000	0.523000	0.135000
H121	H12	0.731000	0.492000	0.095000
H131	H13	0.831000	0.470700	0.255000
H141	H14	0.557000	0.492600	0.211000
H151	H15	0.973000	0.633500	0.258900
H161	H16	0.713000	0.656900	0.208100
H171	H17	0.696000	0.594400	0.360400
H181	H18	0.459000	0.639100	0.311500
N31	N3	0.232300	0.803200	0.881300
N41	N4	0.269000	0.254000	0.637700
C71	C7	0.306000	0.698200	0.880500
C81	C8	0.072000	0.631300	0.877000
C91	C9	0.139000	0.520000	0.863000
C101	C10	0.254000	0.490200	0.783000
C111	C11	0.216000	0.383000	0.751600
C121	C12	0.350000	0.357100	0.676300
H191	H19	0.390500	0.847600	0.884500
H201	H20	0.125900	0.809100	0.832000
H211	H21	0.129500	0.823100	0.927700
H221	H22	0.359000	0.237600	0.588100
H231	H23	0.078000	0.250200	0.625400
H241	H24	0.315000	0.205500	0.674400
H251	H25	0.408000	0.678100	0.834100
H261	H26	0.412000	0.692100	0.929700
H271	H27	0.956000	0.644500	0.831700
H281	H28	0.982000	0.646000	0.926700
H291	H29	0.980000	0.477000	0.865000
H301	H30	0.269000	0.508000	0.905000
H311	H31	0.169000	0.529300	0.745000
H321	H32	0.443000	0.507400	0.789000
H331	H33	0.027000	0.366500	0.741100
H341	H34	0.287000	0.343100	0.791900
H351	H35	0.304000	0.405600	0.639600
H361	H36	0.541000	0.360900	0.688500
