data_WOWHIZ_charged_PM
_symmetry_space_group_name_H-M	'P1'
_cell_length_a	12.412200
_cell_length_b	13.937000
_cell_length_c	24.949000
_cell_angle_alpha	89.954600
_cell_angle_beta	89.898000
_cell_angle_gamma	63.557800
_symmetry_Int_Tables_number 1

loop_
_symmetry_equiv_pos_as_xyz
'x,y,z'

loop_
_atom_site_label
_atom_site_type_symbol
_atom_site_fract_x
_atom_site_fract_y
_atom_site_fract_z
V11	V1	0.884380	0.908640	0.172710
V21	V2	0.947780	0.801040	0.296910
V31	V3	0.667810	0.795980	0.305540
V41	V4	0.516690	0.735820	0.213180
V51	V5	0.597150	0.502300	0.155380
V61	V6	0.313370	0.504460	0.161360
V71	V7	0.198880	0.336240	0.132680
V81	V8	0.241080	0.199840	0.019650
V91	V9	0.963630	0.196940	0.016340
V101	V10	0.938300	0.108800	0.149800
V111	V11	0.793020	0.091360	0.672710
V121	V12	0.748820	0.198960	0.796910
V131	V13	0.463790	0.204020	0.805540
V141	V14	0.252510	0.264180	0.713180
V151	V15	0.099450	0.497700	0.655380
V161	V16	0.817830	0.495540	0.661360
V171	V17	0.535120	0.663760	0.632680
V181	V18	0.440920	0.800160	0.519650
V191	V19	0.160570	0.803060	0.516340
V201	V20	0.047100	0.891200	0.649800
Co11	Co1	0.189470	0.534100	0.294700
Co21	Co2	0.422800	0.066000	0.300950
Co31	Co3	0.482340	0.939260	0.033490
Co41	Co4	0.188500	0.533720	0.526300
Co51	Co5	0.794670	0.308260	0.249040
Co61	Co6	0.926570	0.042660	0.909500
Co71	Co7	0.094090	0.709220	0.076980
Co81	Co8	0.630280	0.644640	0.415650
Co91	Co9	0.723570	0.465900	0.794700
Co101	Co10	0.488800	0.934000	0.800950
Co111	Co11	0.421600	0.060740	0.533490
Co121	Co12	0.722220	0.466280	0.026300
Co131	Co13	0.102930	0.691740	0.749040
Co141	Co14	0.969230	0.957340	0.409500
Co151	Co15	0.803310	0.290780	0.576980
Co161	Co16	0.274920	0.355360	0.915650
H11	H1	0.923200	0.603200	0.244200
H21	H2	0.798300	0.526000	0.236200
H31	H3	0.056500	0.251000	0.282100
H41	H4	0.241500	0.963200	0.262000
H51	H5	0.077300	0.956400	0.297100
H61	H6	0.178600	0.006000	0.439200
H71	H7	0.212900	0.009800	0.080100
H81	H8	0.087100	0.930000	0.079300
H91	H9	0.354700	0.652400	0.052900
H101	H10	0.909500	0.635600	0.565400
H111	H11	0.731500	0.656200	0.528200
H121	H12	0.885500	0.601400	0.385700
H131	H13	0.556900	0.299600	0.195000
H141	H14	0.430100	0.231400	0.224400
H151	H15	0.665400	0.058000	0.329400
H161	H16	0.635600	0.150600	0.914300
H171	H17	0.494200	0.108200	0.957000
H181	H18	0.751100	0.873400	0.030200
H191	H19	0.564800	0.295600	0.628300
H201	H20	0.363000	0.378400	0.609200
H211	H21	0.424600	0.538200	0.494500
H221	H22	0.336800	0.760200	0.403200
H231	H23	0.200700	0.705400	0.367300
H241	H24	0.464800	0.461000	0.298800
H251	H25	0.526400	0.396800	0.744200
H261	H26	0.324300	0.474000	0.736200
H271	H27	0.307500	0.749000	0.782100
H281	H28	0.204700	0.036800	0.762000
H291	H29	0.033700	0.043600	0.797100
H301	H30	0.184600	0.994000	0.939200
H311	H31	0.222700	0.990200	0.580100
H321	H32	0.017100	0.070000	0.579300
H331	H33	0.007100	0.347600	0.552900
H341	H34	0.545100	0.364400	0.065400
H351	H35	0.387700	0.343800	0.028200
H361	H36	0.486900	0.398600	0.885700
H371	H37	0.856500	0.700400	0.695000
H381	H38	0.661500	0.768600	0.724400
H391	H39	0.723400	0.942000	0.829400
H401	H40	0.786200	0.849400	0.414300
H411	H41	0.602400	0.891800	0.457000
H421	H42	0.624500	0.126600	0.530200
H431	H43	0.860400	0.704400	0.128300
H441	H44	0.741400	0.621600	0.109200
H451	H45	0.962800	0.461800	0.994500
H461	H46	0.097000	0.239800	0.903200
H471	H47	0.906100	0.294600	0.867300
H481	H48	0.925800	0.539000	0.798800
C11	C1	0.952500	0.530600	0.252000
C21	C2	0.877500	0.483400	0.246400
C31	C3	0.028500	0.323000	0.273100
C41	C4	0.103200	0.373600	0.278100
C51	C5	0.231900	0.309000	0.297200
C61	C6	0.226300	0.976800	0.298500
C71	C7	0.130600	0.967800	0.319300
C81	C8	0.189500	0.998600	0.402300
C91	C9	0.284200	0.012000	0.378400
C101	C10	0.359500	0.052000	0.410200
C111	C11	0.242800	0.937200	0.072000
C121	C12	0.169100	0.888800	0.073700
C131	C13	0.323300	0.726400	0.056100
C141	C14	0.400600	0.775600	0.048100
C151	C15	0.526400	0.719200	0.029900
C161	C16	0.907200	0.625600	0.528700
C171	C17	0.797800	0.641000	0.506300
C181	C18	0.888200	0.607400	0.422700
C191	C19	0.999200	0.588200	0.448100
C201	C20	0.113100	0.549000	0.416300
C211	C21	0.578400	0.254200	0.224500
C221	C22	0.504400	0.209200	0.241000
C231	C23	0.639700	0.110600	0.302900
C241	C24	0.711400	0.160800	0.289100
C251	C25	0.830000	0.132000	0.319200
C261	C26	0.661800	0.093200	0.938000
C271	C27	0.575600	0.067000	0.964100
C281	C28	0.724400	0.930800	0.006500
C291	C29	0.809000	0.955600	0.981200
C301	C30	0.943500	0.889600	0.989400
C311	C31	0.537500	0.345600	0.600700
C321	C32	0.415900	0.393400	0.588400
C331	C33	0.451600	0.486800	0.521400
C341	C34	0.571800	0.438800	0.534700
C351	C35	0.663100	0.461800	0.502800
C361	C36	0.364100	0.697400	0.383400
C371	C37	0.282600	0.665400	0.360600
C381	C38	0.437600	0.520200	0.321300
C391	C39	0.520400	0.547200	0.346200
C401	C40	0.657000	0.479600	0.340700
C411	C41	0.483100	0.469400	0.752000
C421	C42	0.360900	0.516600	0.746400
C431	C43	0.351500	0.677000	0.773100
C441	C44	0.476800	0.626400	0.778100
C451	C45	0.540900	0.691000	0.797200
C461	C46	0.203100	0.023200	0.798500
C471	C47	0.098400	0.032200	0.819300
C481	C48	0.188100	0.001400	0.902300
C491	C49	0.296200	0.988000	0.878400
C501	C50	0.411500	0.948000	0.910200
C511	C51	0.180000	0.062800	0.572000
C521	C52	0.057900	0.111200	0.573700
C531	C53	0.049700	0.273600	0.556100
C541	C54	0.176200	0.224400	0.548100
C551	C55	0.245600	0.280800	0.529900
C561	C56	0.532800	0.374400	0.028700
C571	C57	0.438800	0.359000	0.006300
C581	C58	0.495600	0.392600	0.922700
C591	C59	0.587400	0.411800	0.948100
C601	C60	0.662100	0.451000	0.916300
C611	C61	0.832600	0.745800	0.724500
C621	C62	0.713600	0.790800	0.741000
C631	C63	0.750300	0.889400	0.802900
C641	C64	0.872200	0.839200	0.789100
C651	C65	0.962000	0.868000	0.819200
C661	C66	0.755000	0.906800	0.438000
C671	C67	0.642600	0.933000	0.464100
C681	C68	0.655200	0.069200	0.506500
C691	C69	0.764600	0.044400	0.481200
C701	C70	0.833100	0.110400	0.489400
C711	C71	0.883100	0.654400	0.100700
C721	C72	0.809300	0.606600	0.088400
C731	C73	0.938400	0.513200	0.021400
C741	C74	0.010600	0.561200	0.034700
C751	C75	0.124900	0.538200	0.002800
C761	C76	0.061500	0.302600	0.883400
C771	C77	0.948000	0.334600	0.860600
C781	C78	0.957800	0.479800	0.821300
C791	C79	0.067600	0.452800	0.846200
C801	C80	0.136600	0.520400	0.840700
N11	N1	0.063400	0.477600	0.267800
N21	N2	0.911200	0.382200	0.254500
N31	N3	0.300300	0.003800	0.326000
N41	N4	0.114000	0.975200	0.372400
N51	N5	0.362800	0.878200	0.058200
N61	N6	0.213900	0.779400	0.067400
N71	N7	0.009500	0.597200	0.500900
N81	N8	0.788400	0.633600	0.451800
N91	N9	0.682200	0.232800	0.251000
N101	N10	0.533900	0.137600	0.278300
N111	N11	0.776500	0.037800	0.947200
N121	N12	0.608000	0.986000	0.998100
N131	N13	0.614500	0.368400	0.575100
N141	N14	0.373700	0.461000	0.546500
N151	N15	0.486300	0.634000	0.376000
N161	N16	0.320000	0.577600	0.329000
N171	N17	0.541000	0.522400	0.767800
N181	N18	0.293400	0.617800	0.754500
N191	N19	0.304100	0.996200	0.826000
N201	N20	0.089200	0.024800	0.872400
N211	N21	0.241000	0.121800	0.558200
N221	N22	0.993300	0.220600	0.567400
N231	N23	0.606700	0.402800	0.000900
N241	N24	0.422000	0.366400	0.951800
N251	N25	0.915000	0.767200	0.751000
N261	N26	0.671500	0.862400	0.778300
N271	N27	0.814300	0.962200	0.447200
N281	N28	0.594000	0.014000	0.498100
N291	N29	0.982900	0.631600	0.075100
N301	N30	0.834700	0.539000	0.046500
N311	N31	0.120300	0.366000	0.876000
N321	N32	0.897600	0.422400	0.829000
O11	O1	0.286300	0.366600	0.307600
O21	O2	0.560000	0.922200	0.108600
O31	O3	0.266700	0.214200	0.301600
O41	O4	0.387900	0.054200	0.219800
O51	O5	0.429000	0.077200	0.384200
O61	O6	0.349800	0.048400	0.460300
O71	O7	0.584000	0.771600	0.020300
O81	O8	0.570700	0.616400	0.025200
O91	O9	0.208800	0.518000	0.442000
O101	O10	0.101700	0.551800	0.365900
O111	O11	0.888300	0.180800	0.302400
O121	O12	0.855000	0.068000	0.355800
O131	O13	0.012800	0.918800	0.964700
O141	O14	0.973700	0.811800	0.018800
O151	O15	0.771700	0.407200	0.516300
O161	O16	0.623600	0.528600	0.466600
O171	O17	0.719600	0.518400	0.360100
O181	O18	0.693400	0.390800	0.318500
O191	O19	0.996600	0.816400	0.138800
O201	O20	0.764100	0.894400	0.163300
O211	O21	0.919500	0.896600	0.242000
O221	O22	0.847400	0.041800	0.152300
O231	O23	0.824900	0.154000	0.852300
O241	O24	0.066600	0.689600	0.278200
O251	O25	0.820800	0.774200	0.304200
O261	O26	0.641900	0.753800	0.363500
O271	O27	0.571300	0.925200	0.300900
O281	O28	0.640500	0.723800	0.253900
O291	O29	0.447700	0.855400	0.184600
O301	O30	0.419400	0.718400	0.251700
O311	O31	0.571900	0.638400	0.159100
O321	O32	0.665100	0.438600	0.209300
O331	O33	0.684400	0.450000	0.103600
O341	O34	0.459900	0.491400	0.147000
O351	O35	0.286100	0.514800	0.226200
O361	O36	0.208800	0.615600	0.130400
O371	O37	0.308500	0.387600	0.136900
O381	O38	0.244300	0.226800	0.168100
O391	O39	0.066300	0.422600	0.150300
O401	O40	0.197800	0.307000	0.061800
O411	O41	0.287100	0.231200	0.962100
O421	O42	0.353900	0.095400	0.047100
O431	O43	0.117500	0.171200	0.008600
O441	O44	0.874600	0.326000	0.022900
O451	O45	0.922900	0.151000	0.961900
O461	O46	0.950400	0.127000	0.074800
O471	O47	0.878000	0.221400	0.181800
O481	O48	0.067500	0.018800	0.178900
O491	O49	0.652900	0.633400	0.807600
O501	O50	0.482200	0.077800	0.608600
O511	O51	0.480900	0.785800	0.801600
O521	O52	0.442100	0.945800	0.719800
O531	O53	0.506200	0.922800	0.884200
O541	O54	0.398200	0.951600	0.960300
O551	O55	0.355600	0.228400	0.520300
O561	O56	0.187100	0.383600	0.525200
O571	O57	0.726800	0.482000	0.942000
O581	O58	0.653500	0.448200	0.865900
O591	O59	0.069100	0.819200	0.802400
O601	O60	0.923000	0.932000	0.855800
O611	O61	0.931600	0.081200	0.464700
O621	O62	0.785500	0.188200	0.518800
O631	O63	0.178900	0.592800	0.016300
O641	O64	0.152200	0.471400	0.966600
O651	O65	0.238000	0.481600	0.860100
O661	O66	0.084200	0.609200	0.818500
O671	O67	0.813000	0.183600	0.638800
O681	O68	0.658500	0.105600	0.663300
O691	O69	0.816100	0.103400	0.742000
O701	O70	0.889200	0.958200	0.652300
O711	O71	0.978900	0.846000	0.352300
O721	O72	0.756200	0.310400	0.778200
O731	O73	0.595000	0.225800	0.804200
O741	O74	0.395700	0.246200	0.863500
O751	O75	0.496500	0.074800	0.800900
O761	O76	0.364300	0.276200	0.753900
O771	O77	0.303100	0.144600	0.684600
O781	O78	0.137800	0.281600	0.751700
O791	O79	0.210300	0.361600	0.659100
O801	O80	0.103700	0.561400	0.709300
O811	O81	0.134400	0.550000	0.603600
O821	O82	0.951300	0.508600	0.647000
O831	O83	0.800900	0.485200	0.726200
O841	O84	0.824400	0.384400	0.630400
O851	O85	0.696100	0.612400	0.636900
O861	O86	0.471100	0.773200	0.668100
O871	O87	0.488900	0.577400	0.650300
O881	O88	0.504800	0.693000	0.561800
O891	O89	0.518300	0.768800	0.462100
O901	O90	0.449300	0.904600	0.547100
O911	O91	0.288700	0.828800	0.508600
O921	O92	0.200600	0.674000	0.522900
O931	O93	0.073900	0.849000	0.461900
O941	O94	0.077400	0.873000	0.574800
O951	O95	0.099400	0.778600	0.681800
O961	O96	0.086300	0.981200	0.678900
