data_WOXKOL_clean_PM
_symmetry_space_group_name_H-M	'P1'
_cell_length_a	7.756500
_cell_length_b	9.564300
_cell_length_c	15.189500
_cell_angle_alpha	96.781000
_cell_angle_beta	94.868000
_cell_angle_gamma	110.509000
_symmetry_Int_Tables_number 1

loop_
_symmetry_equiv_pos_as_xyz
'x,y,z'

loop_
_atom_site_label
_atom_site_type_symbol
_atom_site_fract_x
_atom_site_fract_y
_atom_site_fract_z
Mn11	Mn1	0.293790	0.877350	0.583730
Mn21	Mn2	0.706210	0.122650	0.416270
H11	H1	0.894600	0.650900	0.926700
H21	H2	0.700200	0.872500	0.792100
H31	H3	0.605700	0.468900	0.578300
H41	H4	0.648400	0.237700	0.975700
H51	H5	0.323300	0.936700	0.109700
H61	H6	0.676700	0.063300	0.890300
H71	H7	0.627100	0.429800	0.074200
H81	H8	0.819800	0.221000	0.220900
H91	H9	0.837700	0.841300	0.011500
H101	H10	0.989300	0.282800	0.764900
H111	H11	0.449500	0.771100	0.219800
H121	H12	0.550500	0.228900	0.780200
H131	H13	0.892100	0.073700	0.096500
H141	H14	0.105400	0.349100	0.073300
H151	H15	0.394300	0.531100	0.421700
H161	H16	0.054600	0.519700	0.149400
H171	H17	0.858300	0.862100	0.306400
H181	H18	0.469800	0.570800	0.126900
H191	H19	0.107900	0.926300	0.903500
H201	H20	0.351600	0.762300	0.024300
H211	H21	0.141700	0.137900	0.693600
H221	H22	0.162300	0.158700	0.988500
H231	H23	0.372900	0.570200	0.925800
H241	H24	0.299800	0.127500	0.207900
H251	H25	0.530200	0.429200	0.873100
H261	H26	0.010700	0.717200	0.235100
H271	H27	0.945400	0.480300	0.850600
H281	H28	0.180200	0.779000	0.779100
C11	C1	0.489900	0.062000	0.031400
C21	C2	0.983500	0.562500	0.027900
C31	C3	0.413100	0.540700	0.362700
C41	C4	0.884300	0.778000	0.039500
C51	C5	0.394400	0.798700	0.393000
C61	C6	0.016500	0.437500	0.972100
C71	C7	0.586900	0.459300	0.637300
C81	C8	0.985800	0.703400	0.173000
C91	C9	0.164100	0.870600	0.777400
C101	C10	0.420900	0.785700	0.977400
C111	C11	0.856700	0.933000	0.269700
C121	C12	0.986100	0.414300	0.879100
C131	C13	0.123700	0.951500	0.846700
C141	C14	0.013900	0.585700	0.120900
C151	C15	0.371900	0.151100	0.162000
C161	C16	0.920300	0.799600	0.131500
C171	C17	0.417400	0.673000	0.331100
C181	C18	0.579100	0.214300	0.022600
C191	C19	0.143300	0.067000	0.730300
C201	C20	0.628100	0.848900	0.838000
C211	C21	0.079700	0.200400	0.868500
C221	C22	0.876300	0.048500	0.153300
C231	C23	0.115700	0.222000	0.960500
C241	C24	0.510100	0.938000	0.968600
C251	C25	0.564000	0.576500	0.691400
C261	C26	0.542400	0.436800	0.813300
C271	C27	0.917200	0.662500	0.988700
C281	C28	0.566300	0.330500	0.082300
C291	C29	0.544800	0.703100	0.643700
C301	C30	0.082800	0.337500	0.011300
C311	C31	0.442600	0.683200	0.242200
C321	C32	0.605600	0.201300	0.607000
C331	C33	0.455200	0.296900	0.356300
C341	C34	0.534600	0.696600	0.846000
C351	C35	0.582600	0.327000	0.668900
C361	C36	0.014200	0.296600	0.827000
C371	C37	0.545000	0.568500	0.781700
C381	C38	0.557400	0.316800	0.757800
C391	C39	0.455000	0.431500	0.218300
C401	C40	0.613900	0.963900	0.897800
C411	C41	0.433700	0.669500	0.917700
C421	C42	0.386100	0.036100	0.102200
C431	C43	0.465400	0.303400	0.154000
C441	C44	0.835900	0.129400	0.222600
C451	C45	0.436000	0.423500	0.308600
C461	C46	0.457600	0.563200	0.186700
N11	N1	0.110700	0.078900	0.816300
N21	N2	0.822300	0.056200	0.296100
N31	N3	0.177700	0.943800	0.703900
N41	N4	0.889300	0.921100	0.183700
O11	O1	0.394400	0.727500	0.648960
O21	O2	0.672500	0.767500	0.602000
O31	O3	0.327500	0.232500	0.398000
O41	O4	0.319000	0.760700	0.460820
O51	O5	0.681000	0.239300	0.539180
O61	O6	0.451400	0.930200	0.374690
O71	O7	0.548600	0.069800	0.625310
O81	O8	0.605600	0.272500	0.351040
