data_WOYJIF_clean_PM
_symmetry_space_group_name_H-M	'P1'
_cell_length_a	17.717900
_cell_length_b	17.717900
_cell_length_c	27.556600
_cell_angle_alpha	90.000000
_cell_angle_beta	90.000000
_cell_angle_gamma	90.000000
_symmetry_Int_Tables_number 1

loop_
_symmetry_equiv_pos_as_xyz
'x,y,z'

loop_
_atom_site_label
_atom_site_type_symbol
_atom_site_fract_x
_atom_site_fract_y
_atom_site_fract_z
C11	C1	0.154200	0.247600	0.684980
C21	C2	0.036800	0.313900	0.577300
C31	C3	0.085300	0.312800	0.616680
H11	H1	0.110400	0.358100	0.625700
C41	C4	0.098600	0.247300	0.643600
C51	C5	0.010900	0.182100	0.592600
C61	C6	0.000400	0.244100	0.566100
H21	H2	0.967600	0.241800	0.538900
C71	C7	0.058000	0.181100	0.630700
H31	H3	0.064300	0.136100	0.649000
O11	O1	0.182200	0.310600	0.694640
O21	O2	0.164800	0.186200	0.705390
N11	N1	0.969800	0.116500	0.580700
C81	C8	0.024500	0.384000	0.547600
O31	O3	0.053900	0.441930	0.564280
O41	O4	0.985100	0.375600	0.510460
C91	C9	0.967100	0.094200	0.531200
H41	H4	0.996000	0.112600	0.504700
C101	C10	0.345800	0.252400	0.684980
C111	C11	0.463200	0.186100	0.577300
C121	C12	0.414700	0.187200	0.616680
H51	H5	0.389600	0.141900	0.625700
C131	C13	0.401400	0.252700	0.643600
C141	C14	0.489100	0.317900	0.592600
C151	C15	0.499600	0.255900	0.566100
H61	H6	0.532400	0.258200	0.538900
C161	C16	0.442000	0.318900	0.630700
H71	H7	0.435700	0.363900	0.649000
O51	O5	0.317800	0.189400	0.694640
O61	O6	0.335200	0.313800	0.705390
N21	N2	0.530200	0.383500	0.580700
C171	C17	0.475500	0.116000	0.547600
O71	O7	0.446100	0.058070	0.564280
O81	O8	0.514900	0.124400	0.510460
C181	C18	0.532900	0.405800	0.531200
H81	H8	0.504000	0.387400	0.504700
C191	C19	0.252400	0.154200	0.184980
C201	C20	0.186100	0.036800	0.077300
C211	C21	0.187200	0.085300	0.116680
H91	H9	0.141900	0.110400	0.125700
C221	C22	0.252700	0.098600	0.143600
C231	C23	0.317900	0.010900	0.092600
C241	C24	0.255900	0.000400	0.066100
H101	H10	0.258200	0.967600	0.038900
C251	C25	0.318900	0.058000	0.130700
H111	H11	0.363900	0.064300	0.149000
O91	O9	0.189400	0.182200	0.194640
O101	O10	0.313800	0.164800	0.205390
N31	N3	0.383500	0.969800	0.080700
C261	C26	0.116000	0.024500	0.047600
O111	O11	0.058070	0.053900	0.064280
O121	O12	0.124400	0.985100	0.010460
C271	C27	0.405800	0.967100	0.031200
H121	H12	0.387400	0.996000	0.004700
C281	C28	0.247600	0.345800	0.184980
C291	C29	0.313900	0.463200	0.077300
C301	C30	0.312800	0.414700	0.116680
H131	H13	0.358100	0.389600	0.125700
C311	C31	0.247300	0.401400	0.143600
C321	C32	0.182100	0.489100	0.092600
C331	C33	0.244100	0.499600	0.066100
H141	H14	0.241800	0.532400	0.038900
C341	C34	0.181100	0.442000	0.130700
H151	H15	0.136100	0.435700	0.149000
O131	O13	0.310600	0.317800	0.194640
O141	O14	0.186200	0.335200	0.205390
N41	N4	0.116500	0.530200	0.080700
C351	C35	0.384000	0.475500	0.047600
O151	O15	0.441930	0.446100	0.064280
O161	O16	0.375600	0.514900	0.010460
C361	C36	0.094200	0.532900	0.031200
H161	H16	0.112600	0.504000	0.004700
C371	C37	0.345800	0.247600	0.815020
C381	C38	0.463200	0.313900	0.922700
C391	C39	0.414700	0.312800	0.883320
H171	H17	0.389600	0.358100	0.874300
C401	C40	0.401400	0.247300	0.856400
C411	C41	0.489100	0.182100	0.907400
C421	C42	0.499600	0.244100	0.933900
H181	H18	0.532400	0.241800	0.961100
C431	C43	0.442000	0.181100	0.869300
H191	H19	0.435700	0.136100	0.851000
O171	O17	0.317800	0.310600	0.805360
O181	O18	0.335200	0.186200	0.794610
N51	N5	0.530200	0.116500	0.919300
C441	C44	0.475500	0.384000	0.952400
O191	O19	0.446100	0.441930	0.935720
O201	O20	0.514900	0.375600	0.989540
C451	C45	0.532900	0.094200	0.968800
H201	H20	0.504000	0.112600	0.995300
C461	C46	0.154200	0.252400	0.815020
C471	C47	0.036800	0.186100	0.922700
C481	C48	0.085300	0.187200	0.883320
H211	H21	0.110400	0.141900	0.874300
C491	C49	0.098600	0.252700	0.856400
C501	C50	0.010900	0.317900	0.907400
C511	C51	0.000400	0.255900	0.933900
H221	H22	0.967600	0.258200	0.961100
C521	C52	0.058000	0.318900	0.869300
H231	H23	0.064300	0.363900	0.851000
O211	O21	0.182200	0.189400	0.805360
O221	O22	0.164800	0.313800	0.794610
N61	N6	0.969800	0.383500	0.919300
C531	C53	0.024500	0.116000	0.952400
O231	O23	0.053900	0.058070	0.935720
O241	O24	0.985100	0.124400	0.989540
C541	C54	0.967100	0.405800	0.968800
H241	H24	0.996000	0.387400	0.995300
C551	C55	0.247600	0.154200	0.315020
C561	C56	0.313900	0.036800	0.422700
C571	C57	0.312800	0.085300	0.383320
H251	H25	0.358100	0.110400	0.374300
C581	C58	0.247300	0.098600	0.356400
C591	C59	0.182100	0.010900	0.407400
C601	C60	0.244100	0.000400	0.433900
H261	H26	0.241800	0.967600	0.461100
C611	C61	0.181100	0.058000	0.369300
H271	H27	0.136100	0.064300	0.351000
O251	O25	0.310600	0.182200	0.305360
O261	O26	0.186200	0.164800	0.294610
N71	N7	0.116500	0.969800	0.419300
C621	C62	0.384000	0.024500	0.452400
O271	O27	0.441930	0.053900	0.435720
O281	O28	0.375600	0.985100	0.489540
C631	C63	0.094200	0.967100	0.468800
H281	H28	0.112600	0.996000	0.495300
C641	C64	0.252400	0.345800	0.315020
C651	C65	0.186100	0.463200	0.422700
C661	C66	0.187200	0.414700	0.383320
H291	H29	0.141900	0.389600	0.374300
C671	C67	0.252700	0.401400	0.356400
C681	C68	0.317900	0.489100	0.407400
C691	C69	0.255900	0.499600	0.433900
H301	H30	0.258200	0.532400	0.461100
C701	C70	0.318900	0.442000	0.369300
H311	H31	0.363900	0.435700	0.351000
O291	O29	0.189400	0.317800	0.305360
O301	O30	0.313800	0.335200	0.294610
N81	N8	0.383500	0.530200	0.419300
C711	C71	0.116000	0.475500	0.452400
O311	O31	0.058070	0.446100	0.435720
O321	O32	0.124400	0.514900	0.489540
C721	C72	0.405800	0.532900	0.468800
H321	H32	0.387400	0.504000	0.495300
C731	C73	0.845800	0.752400	0.315020
C741	C74	0.963200	0.686100	0.422700
C751	C75	0.914700	0.687200	0.383320
H331	H33	0.889600	0.641900	0.374300
C761	C76	0.901400	0.752700	0.356400
C771	C77	0.989100	0.817900	0.407400
C781	C78	0.999600	0.755900	0.433900
H341	H34	0.032400	0.758200	0.461100
C791	C79	0.942000	0.818900	0.369300
H351	H35	0.935700	0.863900	0.351000
O331	O33	0.817800	0.689400	0.305360
O341	O34	0.835200	0.813800	0.294610
N91	N9	0.030200	0.883500	0.419300
C801	C80	0.975500	0.616000	0.452400
O351	O35	0.946100	0.558070	0.435720
O361	O36	0.014900	0.624400	0.489540
C811	C81	0.032900	0.905800	0.468800
H361	H36	0.004000	0.887400	0.495300
C821	C82	0.654200	0.747600	0.315020
C831	C83	0.536800	0.813900	0.422700
C841	C84	0.585300	0.812800	0.383320
H371	H37	0.610400	0.858100	0.374300
C851	C85	0.598600	0.747300	0.356400
C861	C86	0.510900	0.682100	0.407400
C871	C87	0.500400	0.744100	0.433900
H381	H38	0.467600	0.741800	0.461100
C881	C88	0.558000	0.681100	0.369300
H391	H39	0.564300	0.636100	0.351000
O371	O37	0.682200	0.810600	0.305360
O381	O38	0.664800	0.686200	0.294610
N101	N10	0.469800	0.616500	0.419300
C891	C89	0.524500	0.884000	0.452400
O391	O39	0.553900	0.941930	0.435720
O401	O40	0.485100	0.875600	0.489540
C901	C90	0.467100	0.594200	0.468800
H401	H40	0.496000	0.612600	0.495300
C911	C91	0.747600	0.845800	0.815020
C921	C92	0.813900	0.963200	0.922700
C931	C93	0.812800	0.914700	0.883320
H411	H41	0.858100	0.889600	0.874300
C941	C94	0.747300	0.901400	0.856400
C951	C95	0.682100	0.989100	0.907400
C961	C96	0.744100	0.999600	0.933900
H421	H42	0.741800	0.032400	0.961100
C971	C97	0.681100	0.942000	0.869300
H431	H43	0.636100	0.935700	0.851000
O411	O41	0.810600	0.817800	0.805360
O421	O42	0.686200	0.835200	0.794610
N111	N11	0.616500	0.030200	0.919300
C981	C98	0.884000	0.975500	0.952400
O431	O43	0.941930	0.946100	0.935720
O441	O44	0.875600	0.014900	0.989540
C991	C99	0.594200	0.032900	0.968800
H441	H44	0.612600	0.004000	0.995300
C1001	C100	0.752400	0.654200	0.815020
C1011	C101	0.686100	0.536800	0.922700
C1021	C102	0.687200	0.585300	0.883320
H451	H45	0.641900	0.610400	0.874300
C1031	C103	0.752700	0.598600	0.856400
C1041	C104	0.817900	0.510900	0.907400
C1051	C105	0.755900	0.500400	0.933900
H461	H46	0.758200	0.467600	0.961100
C1061	C106	0.818900	0.558000	0.869300
H471	H47	0.863900	0.564300	0.851000
O451	O45	0.689400	0.682200	0.805360
O461	O46	0.813800	0.664800	0.794610
N121	N12	0.883500	0.469800	0.919300
C1071	C107	0.616000	0.524500	0.952400
O471	O47	0.558070	0.553900	0.935720
O481	O48	0.624400	0.485100	0.989540
C1081	C108	0.905800	0.467100	0.968800
H481	H48	0.887400	0.496000	0.995300
C1091	C109	0.654200	0.752400	0.184980
C1101	C110	0.536800	0.686100	0.077300
C1111	C111	0.585300	0.687200	0.116680
H491	H49	0.610400	0.641900	0.125700
C1121	C112	0.598600	0.752700	0.143600
C1131	C113	0.510900	0.817900	0.092600
C1141	C114	0.500400	0.755900	0.066100
H501	H50	0.467600	0.758200	0.038900
C1151	C115	0.558000	0.818900	0.130700
H511	H51	0.564300	0.863900	0.149000
O491	O49	0.682200	0.689400	0.194640
O501	O50	0.664800	0.813800	0.205390
N131	N13	0.469800	0.883500	0.080700
C1161	C116	0.524500	0.616000	0.047600
O511	O51	0.553900	0.558070	0.064280
O521	O52	0.485100	0.624400	0.010460
C1171	C117	0.467100	0.905800	0.031200
H521	H52	0.496000	0.887400	0.004700
C1181	C118	0.845800	0.747600	0.184980
C1191	C119	0.963200	0.813900	0.077300
C1201	C120	0.914700	0.812800	0.116680
H531	H53	0.889600	0.858100	0.125700
C1211	C121	0.901400	0.747300	0.143600
C1221	C122	0.989100	0.682100	0.092600
C1231	C123	0.999600	0.744100	0.066100
H541	H54	0.032400	0.741800	0.038900
C1241	C124	0.942000	0.681100	0.130700
H551	H55	0.935700	0.636100	0.149000
O531	O53	0.817800	0.810600	0.194640
O541	O54	0.835200	0.686200	0.205390
N141	N14	0.030200	0.616500	0.080700
C1251	C125	0.975500	0.884000	0.047600
O551	O55	0.946100	0.941930	0.064280
O561	O56	0.014900	0.875600	0.010460
C1261	C126	0.032900	0.594200	0.031200
H561	H56	0.004000	0.612600	0.004700
C1271	C127	0.752400	0.845800	0.684980
C1281	C128	0.686100	0.963200	0.577300
C1291	C129	0.687200	0.914700	0.616680
H571	H57	0.641900	0.889600	0.625700
C1301	C130	0.752700	0.901400	0.643600
C1311	C131	0.817900	0.989100	0.592600
C1321	C132	0.755900	0.999600	0.566100
H581	H58	0.758200	0.032400	0.538900
C1331	C133	0.818900	0.942000	0.630700
H591	H59	0.863900	0.935700	0.649000
O571	O57	0.689400	0.817800	0.694640
O581	O58	0.813800	0.835200	0.705390
N151	N15	0.883500	0.030200	0.580700
C1341	C134	0.616000	0.975500	0.547600
O591	O59	0.558070	0.946100	0.564280
O601	O60	0.624400	0.014900	0.510460
C1351	C135	0.905800	0.032900	0.531200
H601	H60	0.887400	0.004000	0.504700
C1361	C136	0.747600	0.654200	0.684980
C1371	C137	0.813900	0.536800	0.577300
C1381	C138	0.812800	0.585300	0.616680
H611	H61	0.858100	0.610400	0.625700
C1391	C139	0.747300	0.598600	0.643600
C1401	C140	0.682100	0.510900	0.592600
C1411	C141	0.744100	0.500400	0.566100
H621	H62	0.741800	0.467600	0.538900
C1421	C142	0.681100	0.558000	0.630700
H631	H63	0.636100	0.564300	0.649000
O611	O61	0.810600	0.682200	0.694640
O621	O62	0.686200	0.664800	0.705390
N161	N16	0.616500	0.469800	0.580700
C1431	C143	0.884000	0.524500	0.547600
O631	O63	0.941930	0.553900	0.564280
O641	O64	0.875600	0.485100	0.510460
C1441	C144	0.594200	0.467100	0.531200
H641	H64	0.612600	0.496000	0.504700
Cu11	Cu1	0.039720	0.539720	0.532150
Cu21	Cu2	0.460280	0.960280	0.532150
Cu31	Cu3	0.960280	0.039720	0.032150
Cu41	Cu4	0.539720	0.460280	0.032150
Cu51	Cu5	0.460280	0.539720	0.967850
Cu61	Cu6	0.039720	0.960280	0.967850
Cu71	Cu7	0.539720	0.039720	0.467850
Cu81	Cu8	0.960280	0.460280	0.467850
Cu91	Cu9	0.250000	0.324830	0.750000
Cu101	Cu10	0.250000	0.175170	0.750000
Cu111	Cu11	0.175170	0.250000	0.250000
Cu121	Cu12	0.324830	0.250000	0.250000
Cu131	Cu13	0.750000	0.675170	0.250000
Cu141	Cu14	0.750000	0.824830	0.250000
Cu151	Cu15	0.824830	0.750000	0.750000
Cu161	Cu16	0.675170	0.750000	0.750000
C1451	C145	0.912400	0.087600	0.599300
H651	H65	0.890700	0.109300	0.627600
C1461	C146	0.587600	0.412400	0.599300
H661	H66	0.609300	0.390700	0.627600
C1471	C147	0.412400	0.912400	0.099300
H671	H67	0.390700	0.890700	0.127600
C1481	C148	0.087600	0.587600	0.099300
H681	H68	0.109300	0.609300	0.127600
C1491	C149	0.587600	0.087600	0.900700
H691	H69	0.609300	0.109300	0.872400
C1501	C150	0.912400	0.412400	0.900700
H701	H70	0.890700	0.390700	0.872400
C1511	C151	0.087600	0.912400	0.400700
H711	H71	0.109300	0.890700	0.372400
C1521	C152	0.412400	0.587600	0.400700
H721	H72	0.390700	0.609300	0.372400
