data_WOZGUP_clean_PM
_symmetry_space_group_name_H-M	'P1'
_cell_length_a	20.429000
_cell_length_b	22.744000
_cell_length_c	21.792000
_cell_angle_alpha	90.000000
_cell_angle_beta	108.783000
_cell_angle_gamma	90.000000
_symmetry_Int_Tables_number 1

loop_
_symmetry_equiv_pos_as_xyz
'x,y,z'

loop_
_atom_site_label
_atom_site_type_symbol
_atom_site_fract_x
_atom_site_fract_y
_atom_site_fract_z
N11	N1	0.772200	0.311300	0.935100
C11	C1	0.748500	0.312900	0.870200
H11	H1	0.718300	0.285100	0.842700
N21	N2	0.774900	0.360700	0.850900
N31	N3	0.814900	0.388600	0.903900
C21	C2	0.813200	0.358100	0.955900
H21	H2	0.837000	0.367800	0.999900
C31	C3	0.768900	0.384600	0.787600
H31	H3	0.748800	0.424600	0.783500
H41	H4	0.737400	0.359600	0.753500
C41	C4	0.838600	0.387200	0.778000
C51	C5	0.864200	0.336000	0.759600
H51	H5	0.838200	0.300600	0.754000
C61	C6	0.927800	0.336500	0.749200
H61	H6	0.945300	0.301500	0.736600
C71	C7	0.965700	0.388200	0.757300
C81	C8	0.940100	0.439400	0.775800
H71	H7	0.966100	0.474700	0.781300
C91	C9	0.876600	0.438900	0.786100
H81	H8	0.859000	0.473900	0.798800
N41	N4	0.637100	0.259700	0.954600
C101	C10	0.595600	0.273100	0.990100
H91	H9	0.610000	0.278300	0.035800
N51	N5	0.530100	0.277800	0.949100
N61	N6	0.531000	0.267400	0.888200
C111	C11	0.597200	0.256200	0.891600
H101	H10	0.612900	0.247400	0.856100
C121	C12	0.468700	0.291600	0.965300
H111	H11	0.436000	0.312900	0.928400
H121	H12	0.481400	0.318400	0.003100
C131	C13	0.431800	0.237600	0.981100
C141	C14	0.362600	0.227700	0.945600
H131	H13	0.339900	0.252100	0.909700
C151	C15	0.326600	0.181900	0.963000
H141	H14	0.279400	0.175200	0.938800
C161	C16	0.359800	0.146100	0.015700
C171	C17	0.429000	0.156000	0.051200
H151	H15	0.451700	0.131600	0.087100
C181	C18	0.465000	0.201800	0.033800
H161	H16	0.512200	0.208500	0.058000
N71	N7	0.249900	0.822500	0.064700
C191	C19	0.214000	0.872600	0.042400
H171	H17	0.185800	0.879900	0.999000
N81	N8	0.225500	0.910400	0.093000
N91	N9	0.268400	0.883700	0.146600
C201	C20	0.283500	0.829400	0.129100
H181	H18	0.312500	0.801100	0.157000
C211	C21	0.197900	0.968000	0.090900
H191	H19	0.150600	0.968900	0.059400
H201	H20	0.194900	0.978200	0.134100
C221	C22	0.242200	0.013500	0.071500
C231	C23	0.282500	0.052100	0.117700
H211	H21	0.283300	0.049300	0.161400
C241	C24	0.321700	0.094600	0.099900
H221	H22	0.349300	0.121000	0.131500
C251	C25	0.320500	0.098600	0.036100
C261	C26	0.280100	0.060100	0.989900
H231	H23	0.279300	0.062800	0.946200
C271	C27	0.241000	0.017500	0.007700
H241	H24	0.213300	0.991100	0.976100
N101	N10	0.272200	0.811300	0.935100
C281	C28	0.248500	0.812900	0.870200
H251	H25	0.218300	0.785100	0.842700
N111	N11	0.274900	0.860700	0.850900
N121	N12	0.314900	0.888600	0.903900
C291	C29	0.313200	0.858100	0.955900
H261	H26	0.337000	0.867800	0.999900
C301	C30	0.268900	0.884600	0.787600
H271	H27	0.248800	0.924600	0.783500
H281	H28	0.237400	0.859600	0.753500
C311	C31	0.338600	0.887200	0.778000
C321	C32	0.364200	0.836000	0.759600
H291	H29	0.338200	0.800600	0.754000
C331	C33	0.427800	0.836500	0.749200
H301	H30	0.445300	0.801500	0.736600
C341	C34	0.465700	0.888200	0.757300
C351	C35	0.440100	0.939400	0.775800
H311	H31	0.466100	0.974700	0.781300
C361	C36	0.376600	0.938900	0.786100
H321	H32	0.359000	0.973900	0.798800
N131	N13	0.137100	0.759700	0.954600
C371	C37	0.095600	0.773100	0.990100
H331	H33	0.110000	0.778300	0.035800
N141	N14	0.030100	0.777800	0.949100
N151	N15	0.031000	0.767400	0.888200
C381	C38	0.097200	0.756200	0.891600
H341	H34	0.112900	0.747400	0.856100
C391	C39	0.968700	0.791600	0.965300
H351	H35	0.936000	0.812900	0.928400
H361	H36	0.981400	0.818400	0.003100
C401	C40	0.931800	0.737600	0.981100
C411	C41	0.862600	0.727700	0.945600
H371	H37	0.839900	0.752100	0.909700
C421	C42	0.826600	0.681900	0.963000
H381	H38	0.779400	0.675200	0.938800
C431	C43	0.859800	0.646100	0.015700
C441	C44	0.929000	0.656000	0.051200
H391	H39	0.951700	0.631600	0.087100
C451	C45	0.965000	0.701800	0.033800
H401	H40	0.012200	0.708500	0.058000
N161	N16	0.749900	0.322500	0.064700
C461	C46	0.714000	0.372600	0.042400
H411	H41	0.685800	0.379900	0.999000
N171	N17	0.725500	0.410400	0.093000
N181	N18	0.768400	0.383700	0.146600
C471	C47	0.783500	0.329400	0.129100
H421	H42	0.812500	0.301100	0.157000
C481	C48	0.697900	0.468000	0.090900
H431	H43	0.650600	0.468900	0.059400
H441	H44	0.694900	0.478200	0.134100
C491	C49	0.742200	0.513500	0.071500
C501	C50	0.782500	0.552100	0.117700
H451	H45	0.783300	0.549300	0.161400
C511	C51	0.821700	0.594600	0.099900
H461	H46	0.849300	0.621000	0.131500
C521	C52	0.820500	0.598600	0.036100
C531	C53	0.780100	0.560100	0.989900
H471	H47	0.779300	0.562800	0.946200
C541	C54	0.741000	0.517500	0.007700
H481	H48	0.713300	0.491100	0.976100
N191	N19	0.227800	0.311300	0.564900
C551	C55	0.251500	0.312900	0.629800
H491	H49	0.281700	0.285100	0.657300
N201	N20	0.225100	0.360700	0.649100
N211	N21	0.185100	0.388600	0.596100
C561	C56	0.186800	0.358100	0.544100
H501	H50	0.163000	0.367800	0.500100
C571	C57	0.231100	0.384600	0.712400
H511	H51	0.251200	0.424600	0.716500
H521	H52	0.262600	0.359600	0.746500
C581	C58	0.161400	0.387200	0.722000
C591	C59	0.135800	0.336000	0.740400
H531	H53	0.161800	0.300600	0.746000
C601	C60	0.072200	0.336500	0.750800
H541	H54	0.054700	0.301500	0.763400
C611	C61	0.034300	0.388200	0.742700
C621	C62	0.059900	0.439400	0.724200
H551	H55	0.033900	0.474700	0.718700
C631	C63	0.123400	0.438900	0.713900
H561	H56	0.141000	0.473900	0.701200
N221	N22	0.362900	0.259700	0.545400
C641	C64	0.404400	0.273100	0.509900
H571	H57	0.390000	0.278300	0.464200
N231	N23	0.469900	0.277800	0.550900
N241	N24	0.469000	0.267400	0.611800
C651	C65	0.402800	0.256200	0.608400
H581	H58	0.387100	0.247400	0.643900
C661	C66	0.531300	0.291600	0.534700
H591	H59	0.564000	0.312900	0.571600
H601	H60	0.518600	0.318400	0.496900
C671	C67	0.568200	0.237600	0.518900
C681	C68	0.637400	0.227700	0.554400
H611	H61	0.660100	0.252100	0.590300
C691	C69	0.673400	0.181900	0.537000
H621	H62	0.720600	0.175200	0.561200
C701	C70	0.640200	0.146100	0.484300
C711	C71	0.571000	0.156000	0.448800
H631	H63	0.548300	0.131600	0.412900
C721	C72	0.535000	0.201800	0.466200
H641	H64	0.487800	0.208500	0.442000
N251	N25	0.750100	0.822500	0.435300
C731	C73	0.786000	0.872600	0.457600
H651	H65	0.814200	0.879900	0.501000
N261	N26	0.774500	0.910400	0.407000
N271	N27	0.731600	0.883700	0.353400
C741	C74	0.716500	0.829400	0.370900
H661	H66	0.687500	0.801100	0.343000
C751	C75	0.802100	0.968000	0.409100
H671	H67	0.849400	0.968900	0.440600
H681	H68	0.805100	0.978200	0.365900
C761	C76	0.757800	0.013500	0.428500
C771	C77	0.717500	0.052100	0.382300
H691	H69	0.716700	0.049300	0.338600
C781	C78	0.678300	0.094600	0.400100
H701	H70	0.650700	0.121000	0.368500
C791	C79	0.679500	0.098600	0.463900
C801	C80	0.719900	0.060100	0.510100
H711	H71	0.720700	0.062800	0.553800
C811	C81	0.759000	0.017500	0.492300
H721	H72	0.786700	0.991100	0.523900
N281	N28	0.727800	0.811300	0.564900
C821	C82	0.751500	0.812900	0.629800
H731	H73	0.781700	0.785100	0.657300
N291	N29	0.725100	0.860700	0.649100
N301	N30	0.685100	0.888600	0.596100
C831	C83	0.686800	0.858100	0.544100
H741	H74	0.663000	0.867800	0.500100
C841	C84	0.731100	0.884600	0.712400
H751	H75	0.751200	0.924600	0.716500
H761	H76	0.762600	0.859600	0.746500
C851	C85	0.661400	0.887200	0.722000
C861	C86	0.635800	0.836000	0.740400
H771	H77	0.661800	0.800600	0.746000
C871	C87	0.572200	0.836500	0.750800
H781	H78	0.554700	0.801500	0.763400
C881	C88	0.534300	0.888200	0.742700
C891	C89	0.559900	0.939400	0.724200
H791	H79	0.533900	0.974700	0.718700
C901	C90	0.623400	0.938900	0.713900
H801	H80	0.641000	0.973900	0.701200
N311	N31	0.862900	0.759700	0.545400
C911	C91	0.904400	0.773100	0.509900
H811	H81	0.890000	0.778300	0.464200
N321	N32	0.969900	0.777800	0.550900
N331	N33	0.969000	0.767400	0.611800
C921	C92	0.902800	0.756200	0.608400
H821	H82	0.887100	0.747400	0.643900
C931	C93	0.031300	0.791600	0.534700
H831	H83	0.064000	0.812900	0.571600
H841	H84	0.018600	0.818400	0.496900
C941	C94	0.068200	0.737600	0.518900
C951	C95	0.137400	0.727700	0.554400
H851	H85	0.160100	0.752100	0.590300
C961	C96	0.173400	0.681900	0.537000
H861	H86	0.220600	0.675200	0.561200
C971	C97	0.140200	0.646100	0.484300
C981	C98	0.071000	0.656000	0.448800
H871	H87	0.048300	0.631600	0.412900
C991	C99	0.035000	0.701800	0.466200
H881	H88	0.987800	0.708500	0.442000
N341	N34	0.250100	0.322500	0.435300
C1001	C100	0.286000	0.372600	0.457600
H891	H89	0.314200	0.379900	0.501000
N351	N35	0.274500	0.410400	0.407000
N361	N36	0.231600	0.383700	0.353400
C1011	C101	0.216500	0.329400	0.370900
H901	H90	0.187500	0.301100	0.343000
C1021	C102	0.302100	0.468000	0.409100
H911	H91	0.349400	0.468900	0.440600
H921	H92	0.305100	0.478200	0.365900
C1031	C103	0.257800	0.513500	0.428500
C1041	C104	0.217500	0.552100	0.382300
H931	H93	0.216700	0.549300	0.338600
C1051	C105	0.178300	0.594600	0.400100
H941	H94	0.150700	0.621000	0.368500
C1061	C106	0.179500	0.598600	0.463900
C1071	C107	0.219900	0.560100	0.510100
H951	H95	0.220700	0.562800	0.553800
C1081	C108	0.259000	0.517500	0.492300
H961	H96	0.286700	0.491100	0.523900
N371	N37	0.227800	0.688700	0.064900
C1091	C109	0.251500	0.687100	0.129800
H971	H97	0.281700	0.714900	0.157300
N381	N38	0.225100	0.639300	0.149100
N391	N39	0.185100	0.611400	0.096100
C1101	C110	0.186800	0.641900	0.044100
H981	H98	0.163000	0.632200	0.000100
C1111	C111	0.231100	0.615400	0.212400
H991	H99	0.251200	0.575400	0.216500
H1001	H100	0.262600	0.640400	0.246500
C1121	C112	0.161400	0.612800	0.222000
C1131	C113	0.135800	0.664000	0.240400
H1011	H101	0.161800	0.699400	0.246000
C1141	C114	0.072200	0.663500	0.250800
H1021	H102	0.054700	0.698500	0.263400
C1151	C115	0.034300	0.611800	0.242700
C1161	C116	0.059900	0.560600	0.224200
H1031	H103	0.033900	0.525300	0.218700
C1171	C117	0.123400	0.561100	0.213900
H1041	H104	0.141000	0.526100	0.201200
N401	N40	0.362900	0.740300	0.045400
C1181	C118	0.404400	0.726900	0.009900
H1051	H105	0.390000	0.721700	0.964200
N411	N41	0.469900	0.722200	0.050900
N421	N42	0.469000	0.732600	0.111800
C1191	C119	0.402800	0.743800	0.108400
H1061	H106	0.387100	0.752600	0.143900
C1201	C120	0.531300	0.708400	0.034700
H1071	H107	0.564000	0.687100	0.071600
H1081	H108	0.518600	0.681600	0.996900
C1211	C121	0.568200	0.762400	0.018900
C1221	C122	0.637400	0.772300	0.054400
H1091	H109	0.660100	0.747900	0.090300
C1231	C123	0.673400	0.818100	0.037000
H1101	H110	0.720600	0.824800	0.061200
C1241	C124	0.640200	0.853900	0.984300
C1251	C125	0.571000	0.844000	0.948800
H1111	H111	0.548300	0.868400	0.912900
C1261	C126	0.535000	0.798200	0.966200
H1121	H112	0.487800	0.791500	0.942000
N431	N43	0.750100	0.177500	0.935300
C1271	C127	0.786000	0.127400	0.957600
H1131	H113	0.814200	0.120100	0.001000
N441	N44	0.774500	0.089600	0.907000
N451	N45	0.731600	0.116300	0.853400
C1281	C128	0.716500	0.170600	0.870900
H1141	H114	0.687500	0.198900	0.843000
C1291	C129	0.802100	0.032000	0.909100
H1151	H115	0.849400	0.031100	0.940600
H1161	H116	0.805100	0.021800	0.865900
C1301	C130	0.757800	0.986500	0.928500
C1311	C131	0.717500	0.947900	0.882300
H1171	H117	0.716700	0.950700	0.838600
C1321	C132	0.678300	0.905400	0.900100
H1181	H118	0.650700	0.879000	0.868500
C1331	C133	0.679500	0.901400	0.963900
C1341	C134	0.719900	0.939900	0.010100
H1191	H119	0.720700	0.937200	0.053800
C1351	C135	0.759000	0.982500	0.992300
H1201	H120	0.786700	0.008900	0.023900
N461	N46	0.727800	0.188700	0.064900
C1361	C136	0.751500	0.187100	0.129800
H1211	H121	0.781700	0.214900	0.157300
N471	N47	0.725100	0.139300	0.149100
N481	N48	0.685100	0.111400	0.096100
C1371	C137	0.686800	0.141900	0.044100
H1221	H122	0.663000	0.132200	0.000100
C1381	C138	0.731100	0.115400	0.212400
H1231	H123	0.751200	0.075400	0.216500
H1241	H124	0.762600	0.140400	0.246500
C1391	C139	0.661400	0.112800	0.222000
C1401	C140	0.635800	0.164000	0.240400
H1251	H125	0.661800	0.199400	0.246000
C1411	C141	0.572200	0.163500	0.250800
H1261	H126	0.554700	0.198500	0.263400
C1421	C142	0.534300	0.111800	0.242700
C1431	C143	0.559900	0.060600	0.224200
H1271	H127	0.533900	0.025300	0.218700
C1441	C144	0.623400	0.061100	0.213900
H1281	H128	0.641000	0.026100	0.201200
N491	N49	0.862900	0.240300	0.045400
C1451	C145	0.904400	0.226900	0.009900
H1291	H129	0.890000	0.221700	0.964200
N501	N50	0.969900	0.222200	0.050900
N511	N51	0.969000	0.232600	0.111800
C1461	C146	0.902800	0.243800	0.108400
H1301	H130	0.887100	0.252600	0.143900
C1471	C147	0.031300	0.208400	0.034700
H1311	H131	0.064000	0.187100	0.071600
H1321	H132	0.018600	0.181600	0.996900
C1481	C148	0.068200	0.262400	0.018900
C1491	C149	0.137400	0.272300	0.054400
H1331	H133	0.160100	0.247900	0.090300
C1501	C150	0.173400	0.318100	0.037000
H1341	H134	0.220600	0.324800	0.061200
C1511	C151	0.140200	0.353900	0.984300
C1521	C152	0.071000	0.344000	0.948800
H1351	H135	0.048300	0.368400	0.912900
C1531	C153	0.035000	0.298200	0.966200
H1361	H136	0.987800	0.291500	0.942000
N521	N52	0.250100	0.677500	0.935300
C1541	C154	0.286000	0.627400	0.957600
H1371	H137	0.314200	0.620100	0.001000
N531	N53	0.274500	0.589600	0.907000
N541	N54	0.231600	0.616300	0.853400
C1551	C155	0.216500	0.670600	0.870900
H1381	H138	0.187500	0.698900	0.843000
C1561	C156	0.302100	0.532000	0.909100
H1391	H139	0.349400	0.531100	0.940600
H1401	H140	0.305100	0.521800	0.865900
C1571	C157	0.257800	0.486500	0.928500
C1581	C158	0.217500	0.447900	0.882300
H1411	H141	0.216700	0.450700	0.838600
C1591	C159	0.178300	0.405400	0.900100
H1421	H142	0.150700	0.379000	0.868500
C1601	C160	0.179500	0.401400	0.963900
C1611	C161	0.219900	0.439900	0.010100
H1431	H143	0.220700	0.437200	0.053800
C1621	C162	0.259000	0.482500	0.992300
H1441	H144	0.286700	0.508900	0.023900
N551	N55	0.772200	0.688700	0.435100
C1631	C163	0.748500	0.687100	0.370200
H1451	H145	0.718300	0.714900	0.342700
N561	N56	0.774900	0.639300	0.350900
N571	N57	0.814900	0.611400	0.403900
C1641	C164	0.813200	0.641900	0.455900
H1461	H146	0.837000	0.632200	0.499900
C1651	C165	0.768900	0.615400	0.287600
H1471	H147	0.748800	0.575400	0.283500
H1481	H148	0.737400	0.640400	0.253500
C1661	C166	0.838600	0.612800	0.278000
C1671	C167	0.864200	0.664000	0.259600
H1491	H149	0.838200	0.699400	0.254000
C1681	C168	0.927800	0.663500	0.249200
H1501	H150	0.945300	0.698500	0.236600
C1691	C169	0.965700	0.611800	0.257300
C1701	C170	0.940100	0.560600	0.275800
H1511	H151	0.966100	0.525300	0.281300
C1711	C171	0.876600	0.561100	0.286100
H1521	H152	0.859000	0.526100	0.298800
N581	N58	0.637100	0.740300	0.454600
C1721	C172	0.595600	0.726900	0.490100
H1531	H153	0.610000	0.721700	0.535800
N591	N59	0.530100	0.722200	0.449100
N601	N60	0.531000	0.732600	0.388200
C1731	C173	0.597200	0.743800	0.391600
H1541	H154	0.612900	0.752600	0.356100
C1741	C174	0.468700	0.708400	0.465300
H1551	H155	0.436000	0.687100	0.428400
H1561	H156	0.481400	0.681600	0.503100
C1751	C175	0.431800	0.762400	0.481100
C1761	C176	0.362600	0.772300	0.445600
H1571	H157	0.339900	0.747900	0.409700
C1771	C177	0.326600	0.818100	0.463000
H1581	H158	0.279400	0.824800	0.438800
C1781	C178	0.359800	0.853900	0.515700
C1791	C179	0.429000	0.844000	0.551200
H1591	H159	0.451700	0.868400	0.587100
C1801	C180	0.465000	0.798200	0.533800
H1601	H160	0.512200	0.791500	0.558000
N611	N61	0.249900	0.177500	0.564700
C1811	C181	0.214000	0.127400	0.542400
H1611	H161	0.185800	0.120100	0.499000
N621	N62	0.225500	0.089600	0.593000
N631	N63	0.268400	0.116300	0.646600
C1821	C182	0.283500	0.170600	0.629100
H1621	H162	0.312500	0.198900	0.657000
C1831	C183	0.197900	0.032000	0.590900
H1631	H163	0.150600	0.031100	0.559400
H1641	H164	0.194900	0.021800	0.634100
C1841	C184	0.242200	0.986500	0.571500
C1851	C185	0.282500	0.947900	0.617700
H1651	H165	0.283300	0.950700	0.661400
C1861	C186	0.321700	0.905400	0.599900
H1661	H166	0.349300	0.879000	0.631500
C1871	C187	0.320500	0.901400	0.536100
C1881	C188	0.280100	0.939900	0.489900
H1671	H167	0.279300	0.937200	0.446200
C1891	C189	0.241000	0.982500	0.507700
H1681	H168	0.213300	0.008900	0.476100
N641	N64	0.272200	0.188700	0.435100
C1901	C190	0.248500	0.187100	0.370200
H1691	H169	0.218300	0.214900	0.342700
N651	N65	0.274900	0.139300	0.350900
N661	N66	0.314900	0.111400	0.403900
C1911	C191	0.313200	0.141900	0.455900
H1701	H170	0.337000	0.132200	0.499900
C1921	C192	0.268900	0.115400	0.287600
H1711	H171	0.248800	0.075400	0.283500
H1721	H172	0.237400	0.140400	0.253500
C1931	C193	0.338600	0.112800	0.278000
C1941	C194	0.364200	0.164000	0.259600
H1731	H173	0.338200	0.199400	0.254000
C1951	C195	0.427800	0.163500	0.249200
H1741	H174	0.445300	0.198500	0.236600
C1961	C196	0.465700	0.111800	0.257300
C1971	C197	0.440100	0.060600	0.275800
H1751	H175	0.466100	0.025300	0.281300
C1981	C198	0.376600	0.061100	0.286100
H1761	H176	0.359000	0.026100	0.298800
N671	N67	0.137100	0.240300	0.454600
C1991	C199	0.095600	0.226900	0.490100
H1771	H177	0.110000	0.221700	0.535800
N681	N68	0.030100	0.222200	0.449100
N691	N69	0.031000	0.232600	0.388200
C2001	C200	0.097200	0.243800	0.391600
H1781	H178	0.112900	0.252600	0.356100
C2011	C201	0.968700	0.208400	0.465300
H1791	H179	0.936000	0.187100	0.428400
H1801	H180	0.981400	0.181600	0.503100
C2021	C202	0.931800	0.262400	0.481100
C2031	C203	0.862600	0.272300	0.445600
H1811	H181	0.839900	0.247900	0.409700
C2041	C204	0.826600	0.318100	0.463000
H1821	H182	0.779400	0.324800	0.438800
C2051	C205	0.859800	0.353900	0.515700
C2061	C206	0.929000	0.344000	0.551200
H1831	H183	0.951700	0.368400	0.587100
C2071	C207	0.965000	0.298200	0.533800
H1841	H184	0.012200	0.291500	0.558000
N701	N70	0.749900	0.677500	0.564700
C2081	C208	0.714000	0.627400	0.542400
H1851	H185	0.685800	0.620100	0.499000
N711	N71	0.725500	0.589600	0.593000
N721	N72	0.768400	0.616300	0.646600
C2091	C209	0.783500	0.670600	0.629100
H1861	H186	0.812500	0.698900	0.657000
C2101	C210	0.697900	0.532000	0.590900
H1871	H187	0.650600	0.531100	0.559400
H1881	H188	0.694900	0.521800	0.634100
C2111	C211	0.742200	0.486500	0.571500
C2121	C212	0.782500	0.447900	0.617700
H1891	H189	0.783300	0.450700	0.661400
C2131	C213	0.821700	0.405400	0.599900
H1901	H190	0.849300	0.379000	0.631500
C2141	C214	0.820500	0.401400	0.536100
C2151	C215	0.780100	0.439900	0.489900
H1911	H191	0.779300	0.437200	0.446200
C2161	C216	0.741000	0.482500	0.507700
H1921	H192	0.713300	0.508900	0.476100
Co11	Co1	0.750000	0.250000	0.000000
Co21	Co2	0.250000	0.250000	0.500000
Co31	Co3	0.250000	0.750000	0.000000
Co41	Co4	0.750000	0.750000	0.500000
