data_WOZSOT_charged_PM
_symmetry_space_group_name_H-M	'P1'
_cell_length_a	18.584600
_cell_length_b	20.815000
_cell_length_c	20.815000
_cell_angle_alpha	90.000000
_cell_angle_beta	90.000000
_cell_angle_gamma	90.000000
_symmetry_Int_Tables_number 1

loop_
_symmetry_equiv_pos_as_xyz
'x,y,z'

loop_
_atom_site_label
_atom_site_type_symbol
_atom_site_fract_x
_atom_site_fract_y
_atom_site_fract_z
Cd11	Cd1	0.612570	0.685450	0.638600
Cd21	Cd2	0.794060	0.495270	0.593390
Cd31	Cd3	0.445450	0.482760	0.559700
Cd41	Cd4	0.612570	0.814550	0.861400
Cd51	Cd5	0.794060	0.004730	0.906610
Cd61	Cd6	0.445450	0.017240	0.940300
Cd71	Cd7	0.112570	0.361400	0.185450
Cd81	Cd8	0.294060	0.406610	0.995270
Cd91	Cd9	0.945450	0.440300	0.982760
Cd101	Cd10	0.112570	0.138600	0.314550
Cd111	Cd11	0.294060	0.093390	0.504730
Cd121	Cd12	0.945450	0.059700	0.517240
Cd131	Cd13	0.387430	0.314550	0.361400
Cd141	Cd14	0.205940	0.504730	0.406610
Cd151	Cd15	0.554550	0.517240	0.440300
Cd161	Cd16	0.387430	0.185450	0.138600
Cd171	Cd17	0.205940	0.995270	0.093390
Cd181	Cd18	0.554550	0.982760	0.059700
Cd191	Cd19	0.887430	0.638600	0.814550
Cd201	Cd20	0.705940	0.593390	0.004730
Cd211	Cd21	0.054550	0.559700	0.017240
Cd221	Cd22	0.887430	0.861400	0.685450
Cd231	Cd23	0.705940	0.906610	0.495270
Cd241	Cd24	0.054550	0.940300	0.482760
Cd251	Cd25	0.750000	0.750000	0.750000
Cd261	Cd26	0.250000	0.250000	0.250000
P11	P1	0.794730	0.633620	0.671300
P21	P2	0.618760	0.529000	0.584590
P31	P3	0.794730	0.866380	0.828700
P41	P4	0.618760	0.971000	0.915410
P51	P5	0.294730	0.328700	0.133620
P61	P6	0.118760	0.415410	0.029000
P71	P7	0.294730	0.171300	0.366380
P81	P8	0.118760	0.084590	0.471000
P91	P9	0.205270	0.366380	0.328700
P101	P10	0.381240	0.471000	0.415410
P111	P11	0.205270	0.133620	0.171300
P121	P12	0.381240	0.029000	0.084590
P131	P13	0.705270	0.671300	0.866380
P141	P14	0.881240	0.584590	0.971000
P151	P15	0.705270	0.828700	0.633620
P161	P16	0.881240	0.915410	0.529000
H11	H1	0.807700	0.612500	0.473400
H21	H2	0.889900	0.629300	0.471800
H31	H3	0.919000	0.519500	0.465600
H41	H4	0.867300	0.537600	0.408400
H51	H5	0.820400	0.427200	0.405800
H61	H6	0.874300	0.409500	0.461200
H71	H7	0.777800	0.342200	0.465800
H81	H8	0.725000	0.401200	0.469900
H91	H9	0.719900	0.310800	0.561400
H101	H10	0.767200	0.326500	0.622000
H111	H11	0.644800	0.394700	0.582500
H121	H12	0.650700	0.353400	0.645200
H131	H13	0.727800	0.465500	0.744000
H141	H14	0.688600	0.398900	0.740800
H151	H15	0.790800	0.346700	0.712000
H161	H16	0.816300	0.394500	0.766000
H171	H17	0.937900	0.434900	0.717100
H181	H18	0.922400	0.363700	0.695900
H191	H19	0.941400	0.385500	0.593000
H201	H20	0.003500	0.421900	0.628600
H211	H21	0.929400	0.542200	0.664900
H221	H22	0.004600	0.536100	0.630700
H231	H23	0.965200	0.592000	0.543000
H241	H24	0.943500	0.632900	0.603000
H251	H25	0.842500	0.686300	0.582300
H261	H26	0.771100	0.651300	0.562900
H271	H27	0.596000	0.462500	0.670900
H281	H28	0.649100	0.517200	0.691400
H291	H29	0.807700	0.887500	0.026600
H301	H30	0.889900	0.870700	0.028200
H311	H31	0.919000	0.980500	0.034400
H321	H32	0.867300	0.962400	0.091600
H331	H33	0.820400	0.072800	0.094200
H341	H34	0.874300	0.090500	0.038800
H351	H35	0.777800	0.157800	0.034200
H361	H36	0.725000	0.098800	0.030100
H371	H37	0.719900	0.189200	0.938600
H381	H38	0.767200	0.173500	0.878000
H391	H39	0.644800	0.105300	0.917500
H401	H40	0.650700	0.146600	0.854800
H411	H41	0.727800	0.034500	0.756000
H421	H42	0.688600	0.101100	0.759200
H431	H43	0.790800	0.153300	0.788000
H441	H44	0.816300	0.105500	0.734000
H451	H45	0.937900	0.065100	0.782900
H461	H46	0.922400	0.136300	0.804100
H471	H47	0.941400	0.114500	0.907000
H481	H48	0.003500	0.078100	0.871400
H491	H49	0.929400	0.957800	0.835100
H501	H50	0.004600	0.963900	0.869300
H511	H51	0.965200	0.908000	0.957000
H521	H52	0.943500	0.867100	0.897000
H531	H53	0.842500	0.813700	0.917700
H541	H54	0.771100	0.848700	0.937100
H551	H55	0.596000	0.037500	0.829100
H561	H56	0.649100	0.982800	0.808600
H571	H57	0.307700	0.526600	0.112500
H581	H58	0.389900	0.528200	0.129300
H591	H59	0.419000	0.534400	0.019500
H601	H60	0.367300	0.591600	0.037600
H611	H61	0.320400	0.594200	0.927200
H621	H62	0.374300	0.538800	0.909500
H631	H63	0.277800	0.534200	0.842200
H641	H64	0.225000	0.530100	0.901200
H651	H65	0.219900	0.438600	0.810800
H661	H66	0.267200	0.378000	0.826500
H671	H67	0.144800	0.417500	0.894700
H681	H68	0.150700	0.354800	0.853400
H691	H69	0.227800	0.256000	0.965500
H701	H70	0.188600	0.259200	0.898900
H711	H71	0.290800	0.288000	0.846700
H721	H72	0.316300	0.234000	0.894500
H731	H73	0.437900	0.282900	0.934900
H741	H74	0.422400	0.304100	0.863700
H751	H75	0.441400	0.407000	0.885500
H761	H76	0.503500	0.371400	0.921900
H771	H77	0.429400	0.335100	0.042200
H781	H78	0.504600	0.369300	0.036100
H791	H79	0.465200	0.457000	0.092000
H801	H80	0.443500	0.397000	0.132900
H811	H81	0.342500	0.417700	0.186300
H821	H82	0.271100	0.437100	0.151300
H831	H83	0.096000	0.329100	0.962500
H841	H84	0.149100	0.308600	0.017200
H851	H85	0.307700	0.973400	0.387500
H861	H86	0.389900	0.971800	0.370700
H871	H87	0.419000	0.965600	0.480500
H881	H88	0.367300	0.908400	0.462400
H891	H89	0.320400	0.905800	0.572800
H901	H90	0.374300	0.961200	0.590500
H911	H91	0.277800	0.965800	0.657800
H921	H92	0.225000	0.969900	0.598800
H931	H93	0.219900	0.061400	0.689200
H941	H94	0.267200	0.122000	0.673500
H951	H95	0.144800	0.082500	0.605300
H961	H96	0.150700	0.145200	0.646600
H971	H97	0.227800	0.244000	0.534500
H981	H98	0.188600	0.240800	0.601100
H991	H99	0.290800	0.212000	0.653300
H1001	H100	0.316300	0.266000	0.605500
H1011	H101	0.437900	0.217100	0.565100
H1021	H102	0.422400	0.195900	0.636300
H1031	H103	0.441400	0.093000	0.614500
H1041	H104	0.503500	0.128600	0.578100
H1051	H105	0.429400	0.164900	0.457800
H1061	H106	0.504600	0.130700	0.463900
H1071	H107	0.465200	0.043000	0.408000
H1081	H108	0.443500	0.103000	0.367100
H1091	H109	0.342500	0.082300	0.313700
H1101	H110	0.271100	0.062900	0.348700
H1111	H111	0.096000	0.170900	0.537500
H1121	H112	0.149100	0.191400	0.482800
H1131	H113	0.192300	0.387500	0.526600
H1141	H114	0.110100	0.370700	0.528200
H1151	H115	0.081000	0.480500	0.534400
H1161	H116	0.132700	0.462400	0.591600
H1171	H117	0.179600	0.572800	0.594200
H1181	H118	0.125700	0.590500	0.538800
H1191	H119	0.222200	0.657800	0.534200
H1201	H120	0.275000	0.598800	0.530100
H1211	H121	0.280100	0.689200	0.438600
H1221	H122	0.232800	0.673500	0.378000
H1231	H123	0.355200	0.605300	0.417500
H1241	H124	0.349300	0.646600	0.354800
H1251	H125	0.272200	0.534500	0.256000
H1261	H126	0.311400	0.601100	0.259200
H1271	H127	0.209200	0.653300	0.288000
H1281	H128	0.183700	0.605500	0.234000
H1291	H129	0.062100	0.565100	0.282900
H1301	H130	0.077600	0.636300	0.304100
H1311	H131	0.058600	0.614500	0.407000
H1321	H132	0.996500	0.578100	0.371400
H1331	H133	0.070600	0.457800	0.335100
H1341	H134	0.995400	0.463900	0.369300
H1351	H135	0.034800	0.408000	0.457000
H1361	H136	0.056500	0.367100	0.397000
H1371	H137	0.157500	0.313700	0.417700
H1381	H138	0.228900	0.348700	0.437100
H1391	H139	0.404000	0.537500	0.329100
H1401	H140	0.350900	0.482800	0.308600
H1411	H141	0.192300	0.112500	0.973400
H1421	H142	0.110100	0.129300	0.971800
H1431	H143	0.081000	0.019500	0.965600
H1441	H144	0.132700	0.037600	0.908400
H1451	H145	0.179600	0.927200	0.905800
H1461	H146	0.125700	0.909500	0.961200
H1471	H147	0.222200	0.842200	0.965800
H1481	H148	0.275000	0.901200	0.969900
H1491	H149	0.280100	0.810800	0.061400
H1501	H150	0.232800	0.826500	0.122000
H1511	H151	0.355200	0.894700	0.082500
H1521	H152	0.349300	0.853400	0.145200
H1531	H153	0.272200	0.965500	0.244000
H1541	H154	0.311400	0.898900	0.240800
H1551	H155	0.209200	0.846700	0.212000
H1561	H156	0.183700	0.894500	0.266000
H1571	H157	0.062100	0.934900	0.217100
H1581	H158	0.077600	0.863700	0.195900
H1591	H159	0.058600	0.885500	0.093000
H1601	H160	0.996500	0.921900	0.128600
H1611	H161	0.070600	0.042200	0.164900
H1621	H162	0.995400	0.036100	0.130700
H1631	H163	0.034800	0.092000	0.043000
H1641	H164	0.056500	0.132900	0.103000
H1651	H165	0.157500	0.186300	0.082300
H1661	H166	0.228900	0.151300	0.062900
H1671	H167	0.404000	0.962500	0.170900
H1681	H168	0.350900	0.017200	0.191400
H1691	H169	0.692300	0.473400	0.887500
H1701	H170	0.610100	0.471800	0.870700
H1711	H171	0.581000	0.465600	0.980500
H1721	H172	0.632700	0.408400	0.962400
H1731	H173	0.679600	0.405800	0.072800
H1741	H174	0.625700	0.461200	0.090500
H1751	H175	0.722200	0.465800	0.157800
H1761	H176	0.775000	0.469900	0.098800
H1771	H177	0.780100	0.561400	0.189200
H1781	H178	0.732800	0.622000	0.173500
H1791	H179	0.855200	0.582500	0.105300
H1801	H180	0.849300	0.645200	0.146600
H1811	H181	0.772200	0.744000	0.034500
H1821	H182	0.811400	0.740800	0.101100
H1831	H183	0.709200	0.712000	0.153300
H1841	H184	0.683700	0.766000	0.105500
H1851	H185	0.562100	0.717100	0.065100
H1861	H186	0.577600	0.695900	0.136300
H1871	H187	0.558600	0.593000	0.114500
H1881	H188	0.496500	0.628600	0.078100
H1891	H189	0.570600	0.664900	0.957800
H1901	H190	0.495400	0.630700	0.963900
H1911	H191	0.534800	0.543000	0.908000
H1921	H192	0.556500	0.603000	0.867100
H1931	H193	0.657500	0.582300	0.813700
H1941	H194	0.728900	0.562900	0.848700
H1951	H195	0.904000	0.670900	0.037500
H1961	H196	0.850900	0.691400	0.982800
H1971	H197	0.692300	0.026600	0.612500
H1981	H198	0.610100	0.028200	0.629300
H1991	H199	0.581000	0.034400	0.519500
H2001	H200	0.632700	0.091600	0.537600
H2011	H201	0.679600	0.094200	0.427200
H2021	H202	0.625700	0.038800	0.409500
H2031	H203	0.722200	0.034200	0.342200
H2041	H204	0.775000	0.030100	0.401200
H2051	H205	0.780100	0.938600	0.310800
H2061	H206	0.732800	0.878000	0.326500
H2071	H207	0.855200	0.917500	0.394700
H2081	H208	0.849300	0.854800	0.353400
H2091	H209	0.772200	0.756000	0.465500
H2101	H210	0.811400	0.759200	0.398900
H2111	H211	0.709200	0.788000	0.346700
H2121	H212	0.683700	0.734000	0.394500
H2131	H213	0.562100	0.782900	0.434900
H2141	H214	0.577600	0.804100	0.363700
H2151	H215	0.558600	0.907000	0.385500
H2161	H216	0.496500	0.871400	0.421900
H2171	H217	0.570600	0.835100	0.542200
H2181	H218	0.495400	0.869300	0.536100
H2191	H219	0.534800	0.957000	0.592000
H2201	H220	0.556500	0.897000	0.632900
H2211	H221	0.657500	0.917700	0.686300
H2221	H222	0.728900	0.937100	0.651300
H2231	H223	0.904000	0.829100	0.462500
H2241	H224	0.850900	0.808600	0.517200
C11	C1	0.855100	0.597900	0.486400
C21	C2	0.870800	0.533700	0.454800
C31	C3	0.826800	0.426400	0.452000
C41	C4	0.772800	0.386000	0.481000
C51	C5	0.738300	0.345300	0.588000
C61	C6	0.677200	0.381700	0.616600
C71	C7	0.724500	0.425600	0.720000
C81	C8	0.796300	0.391700	0.723100
C91	C9	0.916400	0.408400	0.683900
C101	C10	0.951900	0.420700	0.622000
C111	C11	0.953100	0.537500	0.623700
C121	C12	0.933900	0.593100	0.580300
C131	C13	0.815700	0.646500	0.586600
C141	C14	0.638600	0.486100	0.657900
C151	C15	0.855100	0.902100	0.013600
C161	C16	0.870800	0.966300	0.045200
C171	C17	0.826800	0.073600	0.048000
C181	C18	0.772800	0.114000	0.019000
C191	C19	0.738300	0.154700	0.912000
C201	C20	0.677200	0.118300	0.883400
C211	C21	0.724500	0.074400	0.780000
C221	C22	0.796300	0.108300	0.776900
C231	C23	0.916400	0.091600	0.816100
C241	C24	0.951900	0.079300	0.878000
C251	C25	0.953100	0.962500	0.876300
C261	C26	0.933900	0.906900	0.919700
C271	C27	0.815700	0.853500	0.913400
C281	C28	0.638600	0.013900	0.842100
C291	C29	0.355100	0.513600	0.097900
C301	C30	0.370800	0.545200	0.033700
C311	C31	0.326800	0.548000	0.926400
C321	C32	0.272800	0.519000	0.886000
C331	C33	0.238300	0.412000	0.845300
C341	C34	0.177200	0.383400	0.881700
C351	C35	0.224500	0.280000	0.925600
C361	C36	0.296300	0.276900	0.891700
C371	C37	0.416400	0.316100	0.908400
C381	C38	0.451900	0.378000	0.920700
C391	C39	0.453100	0.376300	0.037500
C401	C40	0.433900	0.419700	0.093100
C411	C41	0.315700	0.413400	0.146500
C421	C42	0.138600	0.342100	0.986100
C431	C43	0.355100	0.986400	0.402100
C441	C44	0.370800	0.954800	0.466300
C451	C45	0.326800	0.952000	0.573600
C461	C46	0.272800	0.981000	0.614000
C471	C47	0.238300	0.088000	0.654700
C481	C48	0.177200	0.116600	0.618300
C491	C49	0.224500	0.220000	0.574400
C501	C50	0.296300	0.223100	0.608300
C511	C51	0.416400	0.183900	0.591600
C521	C52	0.451900	0.122000	0.579300
C531	C53	0.453100	0.123700	0.462500
C541	C54	0.433900	0.080300	0.406900
C551	C55	0.315700	0.086600	0.353500
C561	C56	0.138600	0.157900	0.513900
C571	C57	0.144900	0.402100	0.513600
C581	C58	0.129200	0.466300	0.545200
C591	C59	0.173200	0.573600	0.548000
C601	C60	0.227200	0.614000	0.519000
C611	C61	0.261700	0.654700	0.412000
C621	C62	0.322800	0.618300	0.383400
C631	C63	0.275500	0.574400	0.280000
C641	C64	0.203700	0.608300	0.276900
C651	C65	0.083600	0.591600	0.316100
C661	C66	0.048100	0.579300	0.378000
C671	C67	0.046900	0.462500	0.376300
C681	C68	0.066100	0.406900	0.419700
C691	C69	0.184300	0.353500	0.413400
C701	C70	0.361400	0.513900	0.342100
C711	C71	0.144900	0.097900	0.986400
C721	C72	0.129200	0.033700	0.954800
C731	C73	0.173200	0.926400	0.952000
C741	C74	0.227200	0.886000	0.981000
C751	C75	0.261700	0.845300	0.088000
C761	C76	0.322800	0.881700	0.116600
C771	C77	0.275500	0.925600	0.220000
C781	C78	0.203700	0.891700	0.223100
C791	C79	0.083600	0.908400	0.183900
C801	C80	0.048100	0.920700	0.122000
C811	C81	0.046900	0.037500	0.123700
C821	C82	0.066100	0.093100	0.080300
C831	C83	0.184300	0.146500	0.086600
C841	C84	0.361400	0.986100	0.157900
C851	C85	0.644900	0.486400	0.902100
C861	C86	0.629200	0.454800	0.966300
C871	C87	0.673200	0.452000	0.073600
C881	C88	0.727200	0.481000	0.114000
C891	C89	0.761700	0.588000	0.154700
C901	C90	0.822800	0.616600	0.118300
C911	C91	0.775500	0.720000	0.074400
C921	C92	0.703700	0.723100	0.108300
C931	C93	0.583600	0.683900	0.091600
C941	C94	0.548100	0.622000	0.079300
C951	C95	0.546900	0.623700	0.962500
C961	C96	0.566100	0.580300	0.906900
C971	C97	0.684300	0.586600	0.853500
C981	C98	0.861400	0.657900	0.013900
C991	C99	0.644900	0.013600	0.597900
C1001	C100	0.629200	0.045200	0.533700
C1011	C101	0.673200	0.048000	0.426400
C1021	C102	0.727200	0.019000	0.386000
C1031	C103	0.761700	0.912000	0.345300
C1041	C104	0.822800	0.883400	0.381700
C1051	C105	0.775500	0.780000	0.425600
C1061	C106	0.703700	0.776900	0.391700
C1071	C107	0.583600	0.816100	0.408400
C1081	C108	0.548100	0.878000	0.420700
C1091	C109	0.546900	0.876300	0.537500
C1101	C110	0.566100	0.919700	0.593100
C1111	C111	0.684300	0.913400	0.646500
C1121	C112	0.861400	0.842100	0.486100
N11	N1	0.857900	0.593700	0.557900
N21	N2	0.700000	0.440300	0.653400
N31	N3	0.857900	0.906300	0.942100
N41	N4	0.700000	0.059700	0.846600
N51	N5	0.357900	0.442100	0.093700
N61	N6	0.200000	0.346600	0.940300
N71	N7	0.357900	0.057900	0.406300
N81	N8	0.200000	0.153400	0.559700
N91	N9	0.142100	0.406300	0.442100
N101	N10	0.300000	0.559700	0.346600
N111	N11	0.142100	0.093700	0.057900
N121	N12	0.300000	0.940300	0.153400
N131	N13	0.642100	0.557900	0.906300
N141	N14	0.800000	0.653400	0.059700
N151	N15	0.642100	0.942100	0.593700
N161	N16	0.800000	0.846600	0.440300
O11	O1	0.820500	0.490000	0.477200
O21	O2	0.783000	0.388400	0.549000
O31	O3	0.842500	0.423000	0.678000
O41	O4	0.929500	0.480300	0.592400
O51	O5	0.793000	0.561800	0.682000
O61	O6	0.721900	0.666400	0.684100
O71	O7	0.852000	0.667400	0.712100
O81	O8	0.579200	0.589300	0.605500
O91	O9	0.690700	0.541600	0.552500
O101	O10	0.569800	0.488000	0.542400
O111	O11	0.500100	0.728700	0.615700
O121	O12	0.642900	0.707800	0.534100
O131	O13	0.562600	0.668200	0.737700
O141	O14	0.434100	0.580100	0.584100
O151	O15	0.324700	0.468000	0.572300
O161	O16	0.483600	0.387900	0.590400
O171	O17	0.820500	0.010000	0.022800
O181	O18	0.783000	0.111600	0.951000
O191	O19	0.842500	0.077000	0.822000
O201	O20	0.929500	0.019700	0.907600
O211	O21	0.793000	0.938200	0.818000
O221	O22	0.721900	0.833600	0.815900
O231	O23	0.852000	0.832600	0.787900
O241	O24	0.579200	0.910700	0.894500
O251	O25	0.690700	0.958400	0.947500
O261	O26	0.569800	0.012000	0.957600
O271	O27	0.500100	0.771300	0.884300
O281	O28	0.642900	0.792200	0.965900
O291	O29	0.562600	0.831800	0.762300
O301	O30	0.434100	0.919900	0.915900
O311	O31	0.324700	0.032000	0.927700
O321	O32	0.483600	0.112100	0.909600
O331	O33	0.320500	0.522800	0.990000
O341	O34	0.283000	0.451000	0.888400
O351	O35	0.342500	0.322000	0.923000
O361	O36	0.429500	0.407600	0.980300
O371	O37	0.293000	0.318000	0.061800
O381	O38	0.221900	0.315900	0.166400
O391	O39	0.352000	0.287900	0.167400
O401	O40	0.079200	0.394500	0.089300
O411	O41	0.190700	0.447500	0.041600
O421	O42	0.069800	0.457600	0.988000
O431	O43	0.000100	0.384300	0.228700
O441	O44	0.142900	0.465900	0.207800
O451	O45	0.062600	0.262300	0.168200
O461	O46	0.934100	0.415900	0.080100
O471	O47	0.824700	0.427700	0.968000
O481	O48	0.983600	0.409600	0.887900
O491	O49	0.320500	0.977200	0.510000
O501	O50	0.283000	0.049000	0.611600
O511	O51	0.342500	0.178000	0.577000
O521	O52	0.429500	0.092400	0.519700
O531	O53	0.293000	0.182000	0.438200
O541	O54	0.221900	0.184100	0.333600
O551	O55	0.352000	0.212100	0.332600
O561	O56	0.079200	0.105500	0.410700
O571	O57	0.190700	0.052500	0.458400
O581	O58	0.069800	0.042400	0.512000
O591	O59	0.000100	0.115700	0.271300
O601	O60	0.142900	0.034100	0.292200
O611	O61	0.062600	0.237700	0.331800
O621	O62	0.934100	0.084100	0.419900
O631	O63	0.824700	0.072300	0.532000
O641	O64	0.983600	0.090400	0.612100
O651	O65	0.179500	0.510000	0.522800
O661	O66	0.217000	0.611600	0.451000
O671	O67	0.157500	0.577000	0.322000
O681	O68	0.070500	0.519700	0.407600
O691	O69	0.207000	0.438200	0.318000
O701	O70	0.278100	0.333600	0.315900
O711	O71	0.148000	0.332600	0.287900
O721	O72	0.420800	0.410700	0.394500
O731	O73	0.309300	0.458400	0.447500
O741	O74	0.430200	0.512000	0.457600
O751	O75	0.499900	0.271300	0.384300
O761	O76	0.357100	0.292200	0.465900
O771	O77	0.437400	0.331800	0.262300
O781	O78	0.565900	0.419900	0.415900
O791	O79	0.675300	0.532000	0.427700
O801	O80	0.516400	0.612100	0.409600
O811	O81	0.179500	0.990000	0.977200
O821	O82	0.217000	0.888400	0.049000
O831	O83	0.157500	0.923000	0.178000
O841	O84	0.070500	0.980300	0.092400
O851	O85	0.207000	0.061800	0.182000
O861	O86	0.278100	0.166400	0.184100
O871	O87	0.148000	0.167400	0.212100
O881	O88	0.420800	0.089300	0.105500
O891	O89	0.309300	0.041600	0.052500
O901	O90	0.430200	0.988000	0.042400
O911	O91	0.499900	0.228700	0.115700
O921	O92	0.357100	0.207800	0.034100
O931	O93	0.437400	0.168200	0.237700
O941	O94	0.565900	0.080100	0.084100
O951	O95	0.675300	0.968000	0.072300
O961	O96	0.516400	0.887900	0.090400
O971	O97	0.679500	0.477200	0.010000
O981	O98	0.717000	0.549000	0.111600
O991	O99	0.657500	0.678000	0.077000
O1001	O100	0.570500	0.592400	0.019700
O1011	O101	0.707000	0.682000	0.938200
O1021	O102	0.778100	0.684100	0.833600
O1031	O103	0.648000	0.712100	0.832600
O1041	O104	0.920800	0.605500	0.910700
O1051	O105	0.809300	0.552500	0.958400
O1061	O106	0.930200	0.542400	0.012000
O1071	O107	0.999900	0.615700	0.771300
O1081	O108	0.857100	0.534100	0.792200
O1091	O109	0.937400	0.737700	0.831800
O1101	O110	0.065900	0.584100	0.919900
O1111	O111	0.175300	0.572300	0.032000
O1121	O112	0.016400	0.590400	0.112100
O1131	O113	0.679500	0.022800	0.490000
O1141	O114	0.717000	0.951000	0.388400
O1151	O115	0.657500	0.822000	0.423000
O1161	O116	0.570500	0.907600	0.480300
O1171	O117	0.707000	0.818000	0.561800
O1181	O118	0.778100	0.815900	0.666400
O1191	O119	0.648000	0.787900	0.667400
O1201	O120	0.920800	0.894500	0.589300
O1211	O121	0.809300	0.947500	0.541600
O1221	O122	0.930200	0.957600	0.488000
O1231	O123	0.999900	0.884300	0.728700
O1241	O124	0.857100	0.965900	0.707800
O1251	O125	0.937400	0.762300	0.668200
O1261	O126	0.065900	0.915900	0.580100
O1271	O127	0.175300	0.927700	0.468000
O1281	O128	0.016400	0.909600	0.387900
N171	N17	0.575700	0.241000	0.971100
O1291	O129	0.619000	0.281200	0.986500
O1301	O130	0.560500	0.236100	0.912200
O1311	O131	0.565000	0.196700	0.003200
N181	N18	0.575700	0.259000	0.528900
O1321	O132	0.619000	0.218800	0.513500
O1331	O133	0.560500	0.263900	0.587800
O1341	O134	0.565000	0.303300	0.496800
N191	N19	0.075700	0.028900	0.741000
O1351	O135	0.119000	0.013500	0.781200
O1361	O136	0.060500	0.087800	0.736100
O1371	O137	0.065000	0.996800	0.696700
N201	N20	0.075700	0.471100	0.759000
O1381	O138	0.119000	0.486500	0.718800
O1391	O139	0.060500	0.412200	0.763900
O1401	O140	0.065000	0.503200	0.803300
N211	N21	0.424300	0.759000	0.028900
O1411	O141	0.381000	0.718800	0.013500
O1421	O142	0.439500	0.763900	0.087800
O1431	O143	0.435000	0.803300	0.996800
N221	N22	0.424300	0.741000	0.471100
O1441	O144	0.381000	0.781200	0.486500
O1451	O145	0.439500	0.736100	0.412200
O1461	O146	0.435000	0.696700	0.503200
N231	N23	0.924300	0.971100	0.259000
O1471	O147	0.881000	0.986500	0.218800
O1481	O148	0.939500	0.912200	0.263900
O1491	O149	0.935000	0.003200	0.303300
N241	N24	0.924300	0.528900	0.241000
O1501	O150	0.881000	0.513500	0.281200
O1511	O151	0.939500	0.587800	0.236100
O1521	O152	0.935000	0.496800	0.196700
