data_WOZWEP_clean_PM
_symmetry_space_group_name_H-M	'P1'
_cell_length_a	23.474000
_cell_length_b	23.474000
_cell_length_c	6.692600
_cell_angle_alpha	90.000000
_cell_angle_beta	90.000000
_cell_angle_gamma	90.000000
_symmetry_Int_Tables_number 1

loop_
_symmetry_equiv_pos_as_xyz
'x,y,z'

loop_
_atom_site_label
_atom_site_type_symbol
_atom_site_fract_x
_atom_site_fract_y
_atom_site_fract_z
O11	O1	0.614650	0.237510	0.815300
O21	O2	0.385350	0.762490	0.815300
O31	O3	0.762490	0.614650	0.815300
O41	O4	0.237510	0.385350	0.815300
O51	O5	0.885350	0.737510	0.684700
O61	O6	0.114650	0.262490	0.684700
O71	O7	0.737510	0.114650	0.684700
O81	O8	0.262490	0.885350	0.684700
O91	O9	0.385350	0.762490	0.184700
O101	O10	0.614650	0.237510	0.184700
O111	O11	0.237510	0.385350	0.184700
O121	O12	0.762490	0.614650	0.184700
O131	O13	0.114650	0.262490	0.315300
O141	O14	0.885350	0.737510	0.315300
O151	O15	0.262490	0.885350	0.315300
O161	O16	0.737510	0.114650	0.315300
In11	In1	0.123000	0.275480	0.000000
P11	P1	0.604760	0.200590	0.000000
C11	C1	0.515000	0.123700	0.000000
H11	H1	0.543000	0.095700	0.000000
O171	O17	0.639100	0.145400	0.000000
O181	O18	0.218200	0.251900	0.000000
O191	O19	0.154200	0.184700	0.000000
C21	C2	0.530100	0.179700	0.000000
C31	C3	0.205700	0.199900	0.000000
O201	O20	0.215500	0.979000	0.000000
O211	O21	0.306700	0.961700	0.000000
C41	C4	0.413800	0.147700	0.000000
C51	C5	0.308500	0.171400	0.000000
H21	H2	0.317800	0.209900	0.000000
C61	C6	0.279600	0.058200	0.000000
C71	C7	0.352400	0.132000	0.000000
C81	C8	0.237400	0.098600	0.000000
H31	H3	0.199300	0.087600	0.000000
C91	C9	0.252100	0.156200	0.000000
C101	C10	0.430800	0.203500	0.000000
H41	H4	0.403300	0.232000	0.000000
C111	C11	0.265700	0.996300	0.000000
C121	C12	0.488700	0.218900	0.000000
H51	H5	0.498400	0.257300	0.000000
C131	C13	0.336500	0.074300	0.000000
H61	H6	0.364600	0.046400	0.000000
C141	C14	0.456000	0.107900	0.000000
H71	H7	0.446300	0.069500	0.000000
In21	In2	0.877000	0.724520	0.000000
P21	P2	0.395240	0.799410	0.000000
C151	C15	0.485000	0.876300	0.000000
H81	H8	0.457000	0.904300	0.000000
O221	O22	0.360900	0.854600	0.000000
O231	O23	0.781800	0.748100	0.000000
O241	O24	0.845800	0.815300	0.000000
C161	C16	0.469900	0.820300	0.000000
C171	C17	0.794300	0.800100	0.000000
O251	O25	0.784500	0.021000	0.000000
O261	O26	0.693300	0.038300	0.000000
C181	C18	0.586200	0.852300	0.000000
C191	C19	0.691500	0.828600	0.000000
H91	H9	0.682200	0.790100	0.000000
C201	C20	0.720400	0.941800	0.000000
C211	C21	0.647600	0.868000	0.000000
C221	C22	0.762600	0.901400	0.000000
H101	H10	0.800700	0.912400	0.000000
C231	C23	0.747900	0.843800	0.000000
C241	C24	0.569200	0.796500	0.000000
H111	H11	0.596700	0.768000	0.000000
C251	C25	0.734300	0.003700	0.000000
C261	C26	0.511300	0.781100	0.000000
H121	H12	0.501600	0.742700	0.000000
C271	C27	0.663500	0.925700	0.000000
H131	H13	0.635400	0.953600	0.000000
C281	C28	0.544000	0.892100	0.000000
H141	H14	0.553700	0.930500	0.000000
In31	In3	0.724520	0.123000	0.000000
P31	P3	0.799410	0.604760	0.000000
C291	C29	0.876300	0.515000	0.000000
H151	H15	0.904300	0.543000	0.000000
O271	O27	0.854600	0.639100	0.000000
O281	O28	0.748100	0.218200	0.000000
O291	O29	0.815300	0.154200	0.000000
C301	C30	0.820300	0.530100	0.000000
C311	C31	0.800100	0.205700	0.000000
O301	O30	0.021000	0.215500	0.000000
O311	O31	0.038300	0.306700	0.000000
C321	C32	0.852300	0.413800	0.000000
C331	C33	0.828600	0.308500	0.000000
H161	H16	0.790100	0.317800	0.000000
C341	C34	0.941800	0.279600	0.000000
C351	C35	0.868000	0.352400	0.000000
C361	C36	0.901400	0.237400	0.000000
H171	H17	0.912400	0.199300	0.000000
C371	C37	0.843800	0.252100	0.000000
C381	C38	0.796500	0.430800	0.000000
H181	H18	0.768000	0.403300	0.000000
C391	C39	0.003700	0.265700	0.000000
C401	C40	0.781100	0.488700	0.000000
H191	H19	0.742700	0.498400	0.000000
C411	C41	0.925700	0.336500	0.000000
H201	H20	0.953600	0.364600	0.000000
C421	C42	0.892100	0.456000	0.000000
H211	H21	0.930500	0.446300	0.000000
In41	In4	0.275480	0.877000	0.000000
P41	P4	0.200590	0.395240	0.000000
C431	C43	0.123700	0.485000	0.000000
H221	H22	0.095700	0.457000	0.000000
O321	O32	0.145400	0.360900	0.000000
O331	O33	0.251900	0.781800	0.000000
O341	O34	0.184700	0.845800	0.000000
C441	C44	0.179700	0.469900	0.000000
C451	C45	0.199900	0.794300	0.000000
O351	O35	0.979000	0.784500	0.000000
O361	O36	0.961700	0.693300	0.000000
C461	C46	0.147700	0.586200	0.000000
C471	C47	0.171400	0.691500	0.000000
H231	H23	0.209900	0.682200	0.000000
C481	C48	0.058200	0.720400	0.000000
C491	C49	0.132000	0.647600	0.000000
C501	C50	0.098600	0.762600	0.000000
H241	H24	0.087600	0.800700	0.000000
C511	C51	0.156200	0.747900	0.000000
C521	C52	0.203500	0.569200	0.000000
H251	H25	0.232000	0.596700	0.000000
C531	C53	0.996300	0.734300	0.000000
C541	C54	0.218900	0.511300	0.000000
H261	H26	0.257300	0.501600	0.000000
C551	C55	0.074300	0.663500	0.000000
H271	H27	0.046400	0.635400	0.000000
C561	C56	0.107900	0.544000	0.000000
H281	H28	0.069500	0.553700	0.000000
In51	In5	0.377000	0.775480	0.500000
P51	P5	0.895240	0.700590	0.500000
C571	C57	0.985000	0.623700	0.500000
H291	H29	0.957000	0.595700	0.500000
O371	O37	0.860900	0.645400	0.500000
O381	O38	0.281800	0.751900	0.500000
O391	O39	0.345800	0.684700	0.500000
C581	C58	0.969900	0.679700	0.500000
C591	C59	0.294300	0.699900	0.500000
O401	O40	0.284500	0.479000	0.500000
O411	O41	0.193300	0.461700	0.500000
C601	C60	0.086200	0.647700	0.500000
C611	C61	0.191500	0.671400	0.500000
H301	H30	0.182200	0.709900	0.500000
C621	C62	0.220400	0.558200	0.500000
C631	C63	0.147600	0.632000	0.500000
C641	C64	0.262600	0.598600	0.500000
H311	H31	0.300700	0.587600	0.500000
C651	C65	0.247900	0.656200	0.500000
C661	C66	0.069200	0.703500	0.500000
H321	H32	0.096700	0.732000	0.500000
C671	C67	0.234300	0.496300	0.500000
C681	C68	0.011300	0.718900	0.500000
H331	H33	0.001600	0.757300	0.500000
C691	C69	0.163500	0.574300	0.500000
H341	H34	0.135400	0.546400	0.500000
C701	C70	0.044000	0.607900	0.500000
H351	H35	0.053700	0.569500	0.500000
In61	In6	0.623000	0.224520	0.500000
P61	P6	0.104760	0.299410	0.500000
C711	C71	0.015000	0.376300	0.500000
H361	H36	0.043000	0.404300	0.500000
O421	O42	0.139100	0.354600	0.500000
O431	O43	0.718200	0.248100	0.500000
O441	O44	0.654200	0.315300	0.500000
C721	C72	0.030100	0.320300	0.500000
C731	C73	0.705700	0.300100	0.500000
O451	O45	0.715500	0.521000	0.500000
O461	O46	0.806700	0.538300	0.500000
C741	C74	0.913800	0.352300	0.500000
C751	C75	0.808500	0.328600	0.500000
H371	H37	0.817800	0.290100	0.500000
C761	C76	0.779600	0.441800	0.500000
C771	C77	0.852400	0.368000	0.500000
C781	C78	0.737400	0.401400	0.500000
H381	H38	0.699300	0.412400	0.500000
C791	C79	0.752100	0.343800	0.500000
C801	C80	0.930800	0.296500	0.500000
H391	H39	0.903300	0.268000	0.500000
C811	C81	0.765700	0.503700	0.500000
C821	C82	0.988700	0.281100	0.500000
H401	H40	0.998400	0.242700	0.500000
C831	C83	0.836500	0.425700	0.500000
H411	H41	0.864600	0.453600	0.500000
C841	C84	0.956000	0.392100	0.500000
H421	H42	0.946300	0.430500	0.500000
In71	In7	0.775480	0.623000	0.500000
P71	P7	0.700590	0.104760	0.500000
C851	C85	0.623700	0.015000	0.500000
H431	H43	0.595700	0.043000	0.500000
O471	O47	0.645400	0.139100	0.500000
O481	O48	0.751900	0.718200	0.500000
O491	O49	0.684700	0.654200	0.500000
C861	C86	0.679700	0.030100	0.500000
C871	C87	0.699900	0.705700	0.500000
O501	O50	0.479000	0.715500	0.500000
O511	O51	0.461700	0.806700	0.500000
C881	C88	0.647700	0.913800	0.500000
C891	C89	0.671400	0.808500	0.500000
H441	H44	0.709900	0.817800	0.500000
C901	C90	0.558200	0.779600	0.500000
C911	C91	0.632000	0.852400	0.500000
C921	C92	0.598600	0.737400	0.500000
H451	H45	0.587600	0.699300	0.500000
C931	C93	0.656200	0.752100	0.500000
C941	C94	0.703500	0.930800	0.500000
H461	H46	0.732000	0.903300	0.500000
C951	C95	0.496300	0.765700	0.500000
C961	C96	0.718900	0.988700	0.500000
H471	H47	0.757300	0.998400	0.500000
C971	C97	0.574300	0.836500	0.500000
H481	H48	0.546400	0.864600	0.500000
C981	C98	0.607900	0.956000	0.500000
H491	H49	0.569500	0.946300	0.500000
In81	In8	0.224520	0.377000	0.500000
P81	P8	0.299410	0.895240	0.500000
C991	C99	0.376300	0.985000	0.500000
H501	H50	0.404300	0.957000	0.500000
O521	O52	0.354600	0.860900	0.500000
O531	O53	0.248100	0.281800	0.500000
O541	O54	0.315300	0.345800	0.500000
C1001	C100	0.320300	0.969900	0.500000
C1011	C101	0.300100	0.294300	0.500000
O551	O55	0.521000	0.284500	0.500000
O561	O56	0.538300	0.193300	0.500000
C1021	C102	0.352300	0.086200	0.500000
C1031	C103	0.328600	0.191500	0.500000
H511	H51	0.290100	0.182200	0.500000
C1041	C104	0.441800	0.220400	0.500000
C1051	C105	0.368000	0.147600	0.500000
C1061	C106	0.401400	0.262600	0.500000
H521	H52	0.412400	0.300700	0.500000
C1071	C107	0.343800	0.247900	0.500000
C1081	C108	0.296500	0.069200	0.500000
H531	H53	0.268000	0.096700	0.500000
C1091	C109	0.503700	0.234300	0.500000
C1101	C110	0.281100	0.011300	0.500000
H541	H54	0.242700	0.001600	0.500000
C1111	C111	0.425700	0.163500	0.500000
H551	H55	0.453600	0.135400	0.500000
C1121	C112	0.392100	0.044000	0.500000
H561	H56	0.430500	0.053700	0.500000
