data_WUDQIW_clean_PM
_symmetry_space_group_name_H-M	'P1'
_cell_length_a	8.356700
_cell_length_b	9.043400
_cell_length_c	12.055000
_cell_angle_alpha	90.000000
_cell_angle_beta	90.000000
_cell_angle_gamma	90.000000
_symmetry_Int_Tables_number 1

loop_
_symmetry_equiv_pos_as_xyz
'x,y,z'

loop_
_atom_site_label
_atom_site_type_symbol
_atom_site_fract_x
_atom_site_fract_y
_atom_site_fract_z
Ni11	Ni1	0.128790	0.810240	0.680740
O11	O1	0.059480	0.591320	0.693700
N11	N1	0.380510	0.583840	0.612420
N21	N2	0.342190	0.731280	0.609800
C11	C1	0.142100	0.478550	0.714040
C21	C2	0.324100	0.481800	0.698300
H11	H1	0.373300	0.509000	0.768300
H21	H2	0.360100	0.382900	0.679800
C31	C3	0.482000	0.554800	0.530350
H31	H3	0.525000	0.462100	0.515200
N31	N3	0.513450	0.676920	0.473050
O21	O2	0.091790	0.358280	0.752300
C41	C4	0.424800	0.781680	0.524020
H41	H4	0.422000	0.879800	0.501100
Ni21	Ni2	0.371210	0.189760	0.180740
O31	O3	0.440520	0.408680	0.193700
N41	N4	0.119490	0.416160	0.112420
N51	N5	0.157810	0.268720	0.109800
C51	C5	0.357900	0.521450	0.214040
C61	C6	0.175900	0.518200	0.198300
H51	H5	0.126700	0.491000	0.268300
H61	H6	0.139900	0.617100	0.179800
C71	C7	0.018000	0.445200	0.030350
H71	H7	0.975000	0.537900	0.015200
N61	N6	0.986550	0.323080	0.973050
O41	O4	0.408210	0.641720	0.252300
C81	C8	0.075200	0.218320	0.024020
H81	H8	0.078000	0.120200	0.001100
Ni31	Ni3	0.871210	0.310240	0.819260
O51	O5	0.940520	0.091320	0.806300
N71	N7	0.619490	0.083840	0.887580
N81	N8	0.657810	0.231280	0.890200
C91	C9	0.857900	0.978550	0.785960
C101	C10	0.675900	0.981800	0.801700
H91	H9	0.626700	0.009000	0.731700
H101	H10	0.639900	0.882900	0.820200
C111	C11	0.518000	0.054800	0.969650
H111	H11	0.475000	0.962100	0.984800
N91	N9	0.486550	0.176920	0.026950
O61	O6	0.908210	0.858280	0.747700
C121	C12	0.575200	0.281680	0.975980
H121	H12	0.578000	0.379800	0.998900
Ni41	Ni4	0.628790	0.689760	0.319260
O71	O7	0.559480	0.908680	0.306300
N101	N10	0.880510	0.916160	0.387580
N111	N11	0.842190	0.768720	0.390200
C131	C13	0.642100	0.021450	0.285960
C141	C14	0.824100	0.018200	0.301700
H131	H13	0.873300	0.991000	0.231700
H141	H14	0.860100	0.117100	0.320200
C151	C15	0.982000	0.945200	0.469650
H151	H15	0.025000	0.037900	0.484800
N121	N12	0.013450	0.823080	0.526950
O81	O8	0.591790	0.141720	0.247700
C161	C16	0.924800	0.718320	0.475980
H161	H16	0.922000	0.620200	0.498900
