data_WUDTIA_clean_PM
_symmetry_space_group_name_H-M	'P1'
_cell_length_a	9.840100
_cell_length_b	10.051700
_cell_length_c	18.064200
_cell_angle_alpha	90.221000
_cell_angle_beta	93.857000
_cell_angle_gamma	113.891000
_symmetry_Int_Tables_number 1

loop_
_symmetry_equiv_pos_as_xyz
'x,y,z'

loop_
_atom_site_label
_atom_site_type_symbol
_atom_site_fract_x
_atom_site_fract_y
_atom_site_fract_z
Ce11	Ce1	0.507310	0.276580	0.496380
O11	O1	0.573700	0.161800	0.603130
O21	O2	0.436400	0.412500	0.585960
O31	O3	0.558100	0.939100	0.582130
O41	O4	0.384800	0.599300	0.618150
O51	O5	0.302400	0.309500	0.421330
O61	O6	0.267900	0.509000	0.453440
C11	C1	0.399900	0.483900	0.632700
C21	C2	0.880200	0.125000	0.965400
C31	C3	0.735000	0.001000	0.936400
H11	H1	0.746900	0.910200	0.941000
H21	H2	0.657200	0.996900	0.967800
C41	C4	0.077500	0.422800	0.185400
C51	C5	0.317600	0.491400	0.759900
H31	H3	0.297600	0.571400	0.746600
C61	C6	0.190400	0.409500	0.331000
C71	C7	0.407500	0.312000	0.731200
H41	H4	0.447400	0.269000	0.698200
C81	C8	0.575800	0.043500	0.623900
C91	C9	0.213900	0.332100	0.273200
H51	H5	0.266600	0.274500	0.282600
C101	C10	0.382300	0.260000	0.802000
H61	H6	0.407600	0.183700	0.816200
C111	C11	0.714700	0.145700	0.824600
H71	H7	0.762800	0.230600	0.853700
C121	C12	0.319800	0.319500	0.852200
C131	C13	0.373900	0.427600	0.709300
C141	C14	0.290400	0.437500	0.830400
H81	H8	0.251800	0.481500	0.863600
C151	C15	0.605200	0.030800	0.705900
C161	C16	0.607200	0.888500	0.812300
H91	H9	0.580300	0.797900	0.833300
C171	C17	0.683800	0.012500	0.856200
C181	C18	0.298500	0.476700	0.039600
H101	H10	0.360500	0.439600	0.068200
H111	H11	0.280400	0.546300	0.069400
H121	H12	0.347700	0.523000	0.996700
C191	C19	0.012200	0.140200	0.934700
C201	C20	0.290800	0.259400	0.929000
H131	H13	0.377000	0.316000	0.960000
C211	C21	0.675300	0.155000	0.750500
H141	H14	0.696200	0.245800	0.730600
C221	C22	0.106800	0.490200	0.315800
H151	H15	0.088400	0.541200	0.354100
C231	C23	0.147400	0.251900	0.959800
C241	C24	0.158800	0.340200	0.201200
H161	H16	0.176900	0.289100	0.162900
C251	C25	0.569100	0.895900	0.737200
H171	H17	0.519700	0.811000	0.708200
C261	C26	0.745500	0.194700	0.063200
H181	H18	0.685300	0.234300	0.034900
H191	H19	0.773600	0.242000	0.111500
H201	H20	0.689600	0.092200	0.068200
C271	C27	0.884900	0.219600	0.023400
C281	C28	0.023700	0.442800	0.106700
H211	H21	0.923900	0.439000	0.108100
H221	H22	0.087300	0.539600	0.092000
C291	C29	0.258500	0.408600	0.407800
C301	C30	0.050700	0.495400	0.244400
H231	H23	0.993500	0.548900	0.235600
C311	C31	0.020100	0.335400	0.047000
C321	C32	0.008100	0.033000	0.874900
H241	H24	0.051900	0.969900	0.895000
H251	H25	0.063200	0.084800	0.834700
H261	H26	0.906600	0.976000	0.857100
C331	C33	0.151100	0.352100	0.015000
H271	H27	0.293000	0.164000	0.927000
Ce21	Ce2	0.492690	0.723420	0.503620
O71	O7	0.426300	0.838200	0.396870
O81	O8	0.563600	0.587500	0.414040
O91	O9	0.441900	0.060900	0.417870
O101	O10	0.615200	0.400700	0.381850
O111	O11	0.697600	0.690500	0.578670
O121	O12	0.732100	0.491000	0.546560
C341	C34	0.600100	0.516100	0.367300
C351	C35	0.119800	0.875000	0.034600
C361	C36	0.265000	0.999000	0.063600
H281	H28	0.253100	0.089800	0.059000
H291	H29	0.342800	0.003100	0.032200
C371	C37	0.922500	0.577200	0.814600
C381	C38	0.682400	0.508600	0.240100
H301	H30	0.702400	0.428600	0.253400
C391	C39	0.809600	0.590500	0.669000
C401	C40	0.592500	0.688000	0.268800
H311	H31	0.552600	0.731000	0.301800
C411	C41	0.424200	0.956500	0.376100
C421	C42	0.786100	0.667900	0.726800
H321	H32	0.733400	0.725500	0.717400
C431	C43	0.617700	0.740000	0.198000
H331	H33	0.592400	0.816300	0.183800
C441	C44	0.285300	0.854300	0.175400
H341	H34	0.237200	0.769400	0.146300
C451	C45	0.680200	0.680500	0.147800
C461	C46	0.626100	0.572400	0.290700
C471	C47	0.709600	0.562500	0.169600
H351	H35	0.748200	0.518500	0.136400
C481	C48	0.394800	0.969200	0.294100
C491	C49	0.392800	0.111500	0.187700
H361	H36	0.419700	0.202100	0.166700
C501	C50	0.316200	0.987500	0.143800
C511	C51	0.701500	0.523300	0.960400
H371	H37	0.639500	0.560400	0.931800
H381	H38	0.719600	0.453700	0.930600
H391	H39	0.652300	0.477000	0.003300
C521	C52	0.987800	0.859800	0.065300
C531	C53	0.709200	0.740600	0.071000
H401	H40	0.623000	0.684000	0.040000
C541	C54	0.324700	0.845000	0.249500
H411	H41	0.303800	0.754200	0.269400
C551	C55	0.893200	0.509800	0.684200
H421	H42	0.911600	0.458800	0.645900
C561	C56	0.852600	0.748100	0.040200
C571	C57	0.841200	0.659800	0.798800
H431	H43	0.823100	0.710900	0.837100
C581	C58	0.430900	0.104100	0.262800
H441	H44	0.480300	0.189000	0.291800
C591	C59	0.254500	0.805300	0.936800
H451	H45	0.314700	0.765700	0.965100
H461	H46	0.226400	0.758000	0.888500
H471	H47	0.310400	0.907800	0.931800
C601	C60	0.115100	0.780400	0.976600
C611	C61	0.976300	0.557200	0.893300
H481	H48	0.076100	0.561000	0.891900
H491	H49	0.912700	0.460400	0.908000
C621	C62	0.741500	0.591400	0.592200
C631	C63	0.949300	0.504600	0.755600
H501	H50	0.006500	0.451100	0.764400
C641	C64	0.979900	0.664600	0.953000
C651	C65	0.991900	0.967000	0.125100
H511	H51	0.948100	0.030100	0.105000
H521	H52	0.936800	0.915200	0.165300
H531	H53	0.093400	0.024000	0.142900
C661	C66	0.848900	0.647900	0.985000
H541	H54	0.707000	0.836000	0.073000
