data_WUDVEY_clean_PM
_symmetry_space_group_name_H-M	'P1'
_cell_length_a	32.762600
_cell_length_b	34.950000
_cell_length_c	5.772100
_cell_angle_alpha	90.000000
_cell_angle_beta	90.000000
_cell_angle_gamma	90.000000
_symmetry_Int_Tables_number 1

loop_
_symmetry_equiv_pos_as_xyz
'x,y,z'

loop_
_atom_site_label
_atom_site_type_symbol
_atom_site_fract_x
_atom_site_fract_y
_atom_site_fract_z
O11	O1	0.352100	0.700400	0.289000
O21	O2	0.192000	0.295800	0.237600
O31	O3	0.235300	0.295300	0.956000
O41	O4	0.405500	0.709600	0.067000
C11	C1	0.365000	0.582200	0.222000
H11	H1	0.354300	0.565200	0.330000
C21	C2	0.363400	0.621200	0.269000
H21	H2	0.350700	0.630100	0.402400
O51	O5	0.518100	0.293300	0.166000
C31	C3	0.294900	0.446900	0.525000
H31	H3	0.297700	0.442600	0.690500
H41	H4	0.275600	0.467700	0.504300
C41	C4	0.380700	0.646600	0.115000
C51	C5	0.381600	0.568000	0.024000
C61	C6	0.336500	0.459700	0.430000
C71	C7	0.408900	0.461900	0.465000
C81	C8	0.412000	0.487000	0.284000
C91	C9	0.338000	0.484900	0.250000
C101	C10	0.277300	0.411600	0.418000
C111	C11	0.222100	0.310900	0.132000
C121	C12	0.372000	0.446800	0.540000
C131	C13	0.398300	0.632400	0.915000
H51	H5	0.409300	0.649400	0.808100
C141	C14	0.399700	0.593600	0.871000
H61	H6	0.412900	0.584600	0.739400
C151	C15	0.380000	0.525100	0.965000
H71	H7	0.357000	0.520800	0.862200
H81	H8	0.404600	0.518500	0.880700
C161	C16	0.446700	0.449800	0.608000
H91	H9	0.466700	0.470300	0.600000
H101	H10	0.438500	0.447200	0.768600
C171	C17	0.241100	0.346200	0.232000
C181	C18	0.376200	0.498800	0.165000
C191	C19	0.453300	0.502800	0.218000
H111	H11	0.459000	0.525300	0.308200
H121	H12	0.453300	0.509300	0.056400
H131	H13	0.473900	0.483900	0.247200
C201	C20	0.380400	0.688500	0.166000
C211	C21	0.244900	0.393500	0.533000
H141	H14	0.235100	0.403500	0.671000
C221	C22	0.457800	0.394100	0.340000
H151	H15	0.438200	0.403800	0.240300
C231	C23	0.290500	0.395700	0.221000
H161	H16	0.312800	0.406800	0.146200
C241	C24	0.466500	0.413700	0.533000
C251	C25	0.272800	0.363700	0.122000
H171	H17	0.282400	0.354100	0.981500
C261	C26	0.505200	0.343300	0.427000
C271	C27	0.227400	0.360500	0.441000
H181	H18	0.206500	0.348100	0.520300
C281	C28	0.298900	0.498700	0.130000
H191	H19	0.281200	0.477300	0.103100
H201	H20	0.305800	0.510400	0.984900
H211	H21	0.285300	0.517000	0.227100
C291	C29	0.369900	0.417700	0.729000
H221	H22	0.372000	0.430200	0.876300
H231	H23	0.391900	0.399800	0.711400
H241	H24	0.344300	0.404300	0.720000
C301	C30	0.495600	0.396900	0.679000
H251	H25	0.502300	0.408900	0.818300
C311	C31	0.477000	0.359700	0.282000
H261	H26	0.470500	0.347700	0.142600
C321	C32	0.514500	0.362700	0.620000
H271	H27	0.534500	0.352900	0.718500
C331	C33	0.527400	0.305000	0.386000
O61	O6	0.545000	0.291300	0.549000
O71	O7	0.147900	0.299600	0.789000
O81	O8	0.308000	0.704200	0.737600
O91	O9	0.264700	0.704700	0.456000
O101	O10	0.094500	0.290400	0.567000
C341	C34	0.135000	0.417800	0.722000
H281	H28	0.145700	0.434800	0.830000
C351	C35	0.136600	0.378800	0.769000
H291	H29	0.149300	0.369900	0.902400
O111	O11	0.981900	0.706700	0.666000
C361	C36	0.205100	0.553100	0.025000
H301	H30	0.202300	0.557400	0.190500
H311	H31	0.224400	0.532300	0.004300
C371	C37	0.119300	0.353400	0.615000
C381	C38	0.118400	0.432000	0.524000
C391	C39	0.163500	0.540300	0.930000
C401	C40	0.091100	0.538100	0.965000
C411	C41	0.088000	0.513000	0.784000
C421	C42	0.162000	0.515100	0.750000
C431	C43	0.222700	0.588400	0.918000
C441	C44	0.277900	0.689100	0.632000
C451	C45	0.128000	0.553200	0.040000
C461	C46	0.101700	0.367600	0.415000
H321	H32	0.090700	0.350600	0.308100
C471	C47	0.100300	0.406400	0.371000
H331	H33	0.087100	0.415400	0.239400
C481	C48	0.120000	0.474900	0.465000
H341	H34	0.143000	0.479200	0.362200
H351	H35	0.095400	0.481500	0.380700
C491	C49	0.053300	0.550200	0.108000
H361	H36	0.033300	0.529700	0.100000
H371	H37	0.061500	0.552800	0.268600
C501	C50	0.258900	0.653800	0.732000
C511	C51	0.123800	0.501200	0.665000
C521	C52	0.046700	0.497200	0.718000
H381	H38	0.041000	0.474700	0.808200
H391	H39	0.046700	0.490700	0.556400
H401	H40	0.026100	0.516100	0.747200
C531	C53	0.119600	0.311500	0.666000
C541	C54	0.255100	0.606500	0.033000
H411	H41	0.264900	0.596500	0.171000
C551	C55	0.042200	0.605900	0.840000
H421	H42	0.061800	0.596200	0.740300
C561	C56	0.209500	0.604300	0.721000
H431	H43	0.187200	0.593200	0.646200
C571	C57	0.033500	0.586300	0.033000
C581	C58	0.227200	0.636300	0.622000
H441	H44	0.217600	0.645900	0.481500
C591	C59	0.994800	0.656700	0.927000
C601	C60	0.272600	0.639500	0.941000
H451	H45	0.293500	0.651900	0.020300
C611	C61	0.201100	0.501300	0.630000
H461	H46	0.218800	0.522700	0.603100
H471	H47	0.194200	0.489600	0.484900
H481	H48	0.214700	0.483000	0.727100
C621	C62	0.130100	0.582300	0.229000
H491	H49	0.128000	0.569800	0.376300
H501	H50	0.108100	0.600200	0.211400
H511	H51	0.155700	0.595700	0.220000
C631	C63	0.004400	0.603100	0.179000
H521	H52	0.997700	0.591100	0.318300
C641	C64	0.023000	0.640300	0.782000
H531	H53	0.029500	0.652300	0.642600
C651	C65	0.985500	0.637300	0.120000
H541	H54	0.965500	0.647100	0.218500
C661	C66	0.972600	0.695000	0.886000
O121	O12	0.955000	0.708700	0.049000
O131	O13	0.647900	0.200400	0.711000
O141	O14	0.808000	0.795800	0.762400
O151	O15	0.764700	0.795300	0.044000
O161	O16	0.594500	0.209600	0.933000
C671	C67	0.635000	0.082200	0.778000
H551	H55	0.645700	0.065200	0.670000
C681	C68	0.636600	0.121200	0.731000
H561	H56	0.649300	0.130100	0.597600
O171	O17	0.481900	0.793300	0.834000
C691	C69	0.705100	0.946900	0.475000
H571	H57	0.702300	0.942600	0.309500
H581	H58	0.724400	0.967700	0.495700
C701	C70	0.619300	0.146600	0.885000
C711	C71	0.618400	0.068000	0.976000
C721	C72	0.663500	0.959700	0.570000
C731	C73	0.591100	0.961900	0.535000
C741	C74	0.588000	0.987000	0.716000
C751	C75	0.662000	0.984900	0.750000
C761	C76	0.722700	0.911600	0.582000
C771	C77	0.777900	0.810900	0.868000
C781	C78	0.628000	0.946800	0.460000
C791	C79	0.601700	0.132400	0.085000
H591	H59	0.590700	0.149400	0.191900
C801	C80	0.600300	0.093600	0.129000
H601	H60	0.587100	0.084600	0.260600
C811	C81	0.620000	0.025100	0.035000
H611	H61	0.643000	0.020800	0.137800
H621	H62	0.595400	0.018500	0.119300
C821	C82	0.553300	0.949800	0.392000
H631	H63	0.533300	0.970300	0.400000
H641	H64	0.561500	0.947200	0.231400
C831	C83	0.758900	0.846200	0.768000
C841	C84	0.623800	0.998800	0.835000
C851	C85	0.546700	0.002800	0.782000
H651	H65	0.541000	0.025300	0.691800
H661	H66	0.546700	0.009300	0.943600
H671	H67	0.526100	0.983900	0.752800
C861	C86	0.619600	0.188500	0.834000
C871	C87	0.755100	0.893500	0.467000
H681	H68	0.764900	0.903500	0.329000
C881	C88	0.542200	0.894100	0.660000
H691	H69	0.561800	0.903800	0.759700
C891	C89	0.709500	0.895700	0.779000
H701	H70	0.687200	0.906800	0.853800
C901	C90	0.533500	0.913700	0.467000
C911	C91	0.727200	0.863700	0.878000
H711	H71	0.717600	0.854100	0.018500
C921	C92	0.494800	0.843300	0.573000
C931	C93	0.772600	0.860500	0.559000
H721	H72	0.793500	0.848100	0.479700
C941	C94	0.701100	0.998700	0.870000
H731	H73	0.718800	0.977300	0.896900
H741	H74	0.694200	0.010400	0.015100
H751	H75	0.714700	0.017000	0.772900
C951	C95	0.630100	0.917700	0.271000
H761	H76	0.628000	0.930200	0.123700
H771	H77	0.608100	0.899800	0.288600
H781	H78	0.655700	0.904300	0.280000
C961	C96	0.504400	0.896900	0.321000
H791	H79	0.497700	0.908900	0.181700
C971	C97	0.523000	0.859700	0.718000
H801	H80	0.529500	0.847700	0.857400
C981	C98	0.485500	0.862700	0.380000
H811	H81	0.465500	0.852900	0.281500
C991	C99	0.472600	0.805000	0.614000
O181	O18	0.455000	0.791300	0.451000
O191	O19	0.852100	0.799600	0.211000
O201	O20	0.692000	0.204200	0.262400
O211	O21	0.735300	0.204700	0.544000
O221	O22	0.905500	0.790400	0.433000
C1001	C100	0.865000	0.917800	0.278000
H821	H82	0.854300	0.934800	0.170000
C1011	C101	0.863400	0.878800	0.231000
H831	H83	0.850700	0.869900	0.097600
O231	O23	0.018100	0.206700	0.334000
C1021	C102	0.794900	0.053100	0.975000
H841	H84	0.797700	0.057400	0.809500
H851	H85	0.775600	0.032300	0.995700
C1031	C103	0.880700	0.853400	0.385000
C1041	C104	0.881600	0.932000	0.476000
C1051	C105	0.836500	0.040300	0.070000
C1061	C106	0.908900	0.038100	0.035000
C1071	C107	0.912000	0.013000	0.216000
C1081	C108	0.838000	0.015100	0.250000
C1091	C109	0.777300	0.088400	0.082000
C1101	C110	0.722100	0.189100	0.368000
C1111	C111	0.872000	0.053200	0.960000
C1121	C112	0.898300	0.867600	0.585000
H861	H86	0.909300	0.850600	0.691900
C1131	C113	0.899700	0.906400	0.629000
H871	H87	0.912900	0.915400	0.760600
C1141	C114	0.880000	0.974900	0.535000
H881	H88	0.857000	0.979200	0.637800
H891	H89	0.904600	0.981500	0.619300
C1151	C115	0.946700	0.050200	0.892000
H901	H90	0.966700	0.029700	0.900000
H911	H91	0.938500	0.052800	0.731400
C1161	C116	0.741100	0.153800	0.268000
C1171	C117	0.876200	0.001200	0.335000
C1181	C118	0.953300	0.997200	0.282000
H921	H92	0.959000	0.974700	0.191800
H931	H93	0.953300	0.990700	0.443600
H941	H94	0.973900	0.016100	0.252800
C1191	C119	0.880400	0.811500	0.334000
C1201	C120	0.744900	0.106500	0.967000
H951	H95	0.735100	0.096500	0.829000
C1211	C121	0.957800	0.105900	0.160000
H961	H96	0.938200	0.096200	0.259700
C1221	C122	0.790500	0.104300	0.279000
H971	H97	0.812800	0.093200	0.353800
C1231	C123	0.966500	0.086300	0.967000
C1241	C124	0.772800	0.136300	0.378000
H981	H98	0.782400	0.145900	0.518500
C1251	C125	0.005200	0.156700	0.073000
C1261	C126	0.727400	0.139500	0.059000
H991	H99	0.706500	0.151900	0.979700
C1271	C127	0.798900	0.001300	0.370000
H1001	H100	0.781200	0.022700	0.396900
H1011	H101	0.805800	0.989600	0.515100
H1021	H102	0.785300	0.983000	0.272900
C1281	C128	0.869900	0.082300	0.771000
H1031	H103	0.872000	0.069800	0.623700
H1041	H104	0.891900	0.100200	0.788600
H1051	H105	0.844300	0.095700	0.780000
C1291	C129	0.995600	0.103100	0.821000
H1061	H106	0.002300	0.091100	0.681700
C1301	C130	0.977000	0.140300	0.218000
H1071	H107	0.970500	0.152300	0.357400
C1311	C131	0.014500	0.137300	0.880000
H1081	H108	0.034500	0.147100	0.781500
C1321	C132	0.027400	0.195000	0.114000
O241	O24	0.045000	0.208700	0.951000
O251	O25	0.647900	0.299600	0.711000
O261	O26	0.808000	0.704200	0.762400
O271	O27	0.764700	0.704700	0.044000
O281	O28	0.594500	0.290400	0.933000
C1331	C133	0.635000	0.417800	0.778000
H1091	H109	0.645700	0.434800	0.670000
C1341	C134	0.636600	0.378800	0.731000
H1101	H110	0.649300	0.369900	0.597600
O291	O29	0.481900	0.706700	0.834000
C1351	C135	0.705100	0.553100	0.475000
H1111	H111	0.702300	0.557400	0.309500
H1121	H112	0.724400	0.532300	0.495700
C1361	C136	0.619300	0.353400	0.885000
C1371	C137	0.618400	0.432000	0.976000
C1381	C138	0.663500	0.540300	0.570000
C1391	C139	0.591100	0.538100	0.535000
C1401	C140	0.588000	0.513000	0.716000
C1411	C141	0.662000	0.515100	0.750000
C1421	C142	0.722700	0.588400	0.582000
C1431	C143	0.777900	0.689100	0.868000
C1441	C144	0.628000	0.553200	0.460000
C1451	C145	0.601700	0.367600	0.085000
H1131	H113	0.590700	0.350600	0.191900
C1461	C146	0.600300	0.406400	0.129000
H1141	H114	0.587100	0.415400	0.260600
C1471	C147	0.620000	0.474900	0.035000
H1151	H115	0.643000	0.479200	0.137800
H1161	H116	0.595400	0.481500	0.119300
C1481	C148	0.553300	0.550200	0.392000
H1171	H117	0.533300	0.529700	0.400000
H1181	H118	0.561500	0.552800	0.231400
C1491	C149	0.758900	0.653800	0.768000
C1501	C150	0.623800	0.501200	0.835000
C1511	C151	0.546700	0.497200	0.782000
H1191	H119	0.541000	0.474700	0.691800
H1201	H120	0.546700	0.490700	0.943600
H1211	H121	0.526100	0.516100	0.752800
C1521	C152	0.619600	0.311500	0.834000
C1531	C153	0.755100	0.606500	0.467000
H1221	H122	0.764900	0.596500	0.329000
C1541	C154	0.542200	0.605900	0.660000
H1231	H123	0.561800	0.596200	0.759700
C1551	C155	0.709500	0.604300	0.779000
H1241	H124	0.687200	0.593200	0.853800
C1561	C156	0.533500	0.586300	0.467000
C1571	C157	0.727200	0.636300	0.878000
H1251	H125	0.717600	0.645900	0.018500
C1581	C158	0.494800	0.656700	0.573000
C1591	C159	0.772600	0.639500	0.559000
H1261	H126	0.793500	0.651900	0.479700
C1601	C160	0.701100	0.501300	0.870000
H1271	H127	0.718800	0.522700	0.896900
H1281	H128	0.694200	0.489600	0.015100
H1291	H129	0.714700	0.483000	0.772900
C1611	C161	0.630100	0.582300	0.271000
H1301	H130	0.628000	0.569800	0.123700
H1311	H131	0.608100	0.600200	0.288600
H1321	H132	0.655700	0.595700	0.280000
C1621	C162	0.504400	0.603100	0.321000
H1331	H133	0.497700	0.591100	0.181700
C1631	C163	0.523000	0.640300	0.718000
H1341	H134	0.529500	0.652300	0.857400
C1641	C164	0.485500	0.637300	0.380000
H1351	H135	0.465500	0.647100	0.281500
C1651	C165	0.472600	0.695000	0.614000
O301	O30	0.455000	0.708700	0.451000
O311	O31	0.852100	0.700400	0.211000
O321	O32	0.692000	0.295800	0.262400
O331	O33	0.735300	0.295300	0.544000
O341	O34	0.905500	0.709600	0.433000
C1661	C166	0.865000	0.582200	0.278000
H1361	H136	0.854300	0.565200	0.170000
C1671	C167	0.863400	0.621200	0.231000
H1371	H137	0.850700	0.630100	0.097600
O351	O35	0.018100	0.293300	0.334000
C1681	C168	0.794900	0.446900	0.975000
H1381	H138	0.797700	0.442600	0.809500
H1391	H139	0.775600	0.467700	0.995700
C1691	C169	0.880700	0.646600	0.385000
C1701	C170	0.881600	0.568000	0.476000
C1711	C171	0.836500	0.459700	0.070000
C1721	C172	0.908900	0.461900	0.035000
C1731	C173	0.912000	0.487000	0.216000
C1741	C174	0.838000	0.484900	0.250000
C1751	C175	0.777300	0.411600	0.082000
C1761	C176	0.722100	0.310900	0.368000
C1771	C177	0.872000	0.446800	0.960000
C1781	C178	0.898300	0.632400	0.585000
H1401	H140	0.909300	0.649400	0.691900
C1791	C179	0.899700	0.593600	0.629000
H1411	H141	0.912900	0.584600	0.760600
C1801	C180	0.880000	0.525100	0.535000
H1421	H142	0.857000	0.520800	0.637800
H1431	H143	0.904600	0.518500	0.619300
C1811	C181	0.946700	0.449800	0.892000
H1441	H144	0.966700	0.470300	0.900000
H1451	H145	0.938500	0.447200	0.731400
C1821	C182	0.741100	0.346200	0.268000
C1831	C183	0.876200	0.498800	0.335000
C1841	C184	0.953300	0.502800	0.282000
H1461	H146	0.959000	0.525300	0.191800
H1471	H147	0.953300	0.509300	0.443600
H1481	H148	0.973900	0.483900	0.252800
C1851	C185	0.880400	0.688500	0.334000
C1861	C186	0.744900	0.393500	0.967000
H1491	H149	0.735100	0.403500	0.829000
C1871	C187	0.957800	0.394100	0.160000
H1501	H150	0.938200	0.403800	0.259700
C1881	C188	0.790500	0.395700	0.279000
H1511	H151	0.812800	0.406800	0.353800
C1891	C189	0.966500	0.413700	0.967000
C1901	C190	0.772800	0.363700	0.378000
H1521	H152	0.782400	0.354100	0.518500
C1911	C191	0.005200	0.343300	0.073000
C1921	C192	0.727400	0.360500	0.059000
H1531	H153	0.706500	0.348100	0.979700
C1931	C193	0.798900	0.498700	0.370000
H1541	H154	0.781200	0.477300	0.396900
H1551	H155	0.805800	0.510400	0.515100
H1561	H156	0.785300	0.517000	0.272900
C1941	C194	0.869900	0.417700	0.771000
H1571	H157	0.872000	0.430200	0.623700
H1581	H158	0.891900	0.399800	0.788600
H1591	H159	0.844300	0.404300	0.780000
C1951	C195	0.995600	0.396900	0.821000
H1601	H160	0.002300	0.408900	0.681700
C1961	C196	0.977000	0.359700	0.218000
H1611	H161	0.970500	0.347700	0.357400
C1971	C197	0.014500	0.362700	0.880000
H1621	H162	0.034500	0.352900	0.781500
C1981	C198	0.027400	0.305000	0.114000
O361	O36	0.045000	0.291300	0.951000
O371	O37	0.352100	0.799600	0.289000
O381	O38	0.192000	0.204200	0.237600
O391	O39	0.235300	0.204700	0.956000
O401	O40	0.405500	0.790400	0.067000
C1991	C199	0.365000	0.917800	0.222000
H1631	H163	0.354300	0.934800	0.330000
C2001	C200	0.363400	0.878800	0.269000
H1641	H164	0.350700	0.869900	0.402400
O411	O41	0.518100	0.206700	0.166000
C2011	C201	0.294900	0.053100	0.525000
H1651	H165	0.297700	0.057400	0.690500
H1661	H166	0.275600	0.032300	0.504300
C2021	C202	0.380700	0.853400	0.115000
C2031	C203	0.381600	0.932000	0.024000
C2041	C204	0.336500	0.040300	0.430000
C2051	C205	0.408900	0.038100	0.465000
C2061	C206	0.412000	0.013000	0.284000
C2071	C207	0.338000	0.015100	0.250000
C2081	C208	0.277300	0.088400	0.418000
C2091	C209	0.222100	0.189100	0.132000
C2101	C210	0.372000	0.053200	0.540000
C2111	C211	0.398300	0.867600	0.915000
H1671	H167	0.409300	0.850600	0.808100
C2121	C212	0.399700	0.906400	0.871000
H1681	H168	0.412900	0.915400	0.739400
C2131	C213	0.380000	0.974900	0.965000
H1691	H169	0.357000	0.979200	0.862200
H1701	H170	0.404600	0.981500	0.880700
C2141	C214	0.446700	0.050200	0.608000
H1711	H171	0.466700	0.029700	0.600000
H1721	H172	0.438500	0.052800	0.768600
C2151	C215	0.241100	0.153800	0.232000
C2161	C216	0.376200	0.001200	0.165000
C2171	C217	0.453300	0.997200	0.218000
H1731	H173	0.459000	0.974700	0.308200
H1741	H174	0.453300	0.990700	0.056400
H1751	H175	0.473900	0.016100	0.247200
C2181	C218	0.380400	0.811500	0.166000
C2191	C219	0.244900	0.106500	0.533000
H1761	H176	0.235100	0.096500	0.671000
C2201	C220	0.457800	0.105900	0.340000
H1771	H177	0.438200	0.096200	0.240300
C2211	C221	0.290500	0.104300	0.221000
H1781	H178	0.312800	0.093200	0.146200
C2221	C222	0.466500	0.086300	0.533000
C2231	C223	0.272800	0.136300	0.122000
H1791	H179	0.282400	0.145900	0.981500
C2241	C224	0.505200	0.156700	0.427000
C2251	C225	0.227400	0.139500	0.441000
H1801	H180	0.206500	0.151900	0.520300
C2261	C226	0.298900	0.001300	0.130000
H1811	H181	0.281200	0.022700	0.103100
H1821	H182	0.305800	0.989600	0.984900
H1831	H183	0.285300	0.983000	0.227100
C2271	C227	0.369900	0.082300	0.729000
H1841	H184	0.372000	0.069800	0.876300
H1851	H185	0.391900	0.100200	0.711400
H1861	H186	0.344300	0.095700	0.720000
C2281	C228	0.495600	0.103100	0.679000
H1871	H187	0.502300	0.091100	0.818300
C2291	C229	0.477000	0.140300	0.282000
H1881	H188	0.470500	0.152300	0.142600
C2301	C230	0.514500	0.137300	0.620000
H1891	H189	0.534500	0.147100	0.718500
C2311	C231	0.527400	0.195000	0.386000
O421	O42	0.545000	0.208700	0.549000
O431	O43	0.147900	0.200400	0.789000
O441	O44	0.308000	0.795800	0.737600
O451	O45	0.264700	0.795300	0.456000
O461	O46	0.094500	0.209600	0.567000
C2321	C232	0.135000	0.082200	0.722000
H1901	H190	0.145700	0.065200	0.830000
C2331	C233	0.136600	0.121200	0.769000
H1911	H191	0.149300	0.130100	0.902400
O471	O47	0.981900	0.793300	0.666000
C2341	C234	0.205100	0.946900	0.025000
H1921	H192	0.202300	0.942600	0.190500
H1931	H193	0.224400	0.967700	0.004300
C2351	C235	0.119300	0.146600	0.615000
C2361	C236	0.118400	0.068000	0.524000
C2371	C237	0.163500	0.959700	0.930000
C2381	C238	0.091100	0.961900	0.965000
C2391	C239	0.088000	0.987000	0.784000
C2401	C240	0.162000	0.984900	0.750000
C2411	C241	0.222700	0.911600	0.918000
C2421	C242	0.277900	0.810900	0.632000
C2431	C243	0.128000	0.946800	0.040000
C2441	C244	0.101700	0.132400	0.415000
H1941	H194	0.090700	0.149400	0.308100
C2451	C245	0.100300	0.093600	0.371000
H1951	H195	0.087100	0.084600	0.239400
C2461	C246	0.120000	0.025100	0.465000
H1961	H196	0.143000	0.020800	0.362200
H1971	H197	0.095400	0.018500	0.380700
C2471	C247	0.053300	0.949800	0.108000
H1981	H198	0.033300	0.970300	0.100000
H1991	H199	0.061500	0.947200	0.268600
C2481	C248	0.258900	0.846200	0.732000
C2491	C249	0.123800	0.998800	0.665000
C2501	C250	0.046700	0.002800	0.718000
H2001	H200	0.041000	0.025300	0.808200
H2011	H201	0.046700	0.009300	0.556400
H2021	H202	0.026100	0.983900	0.747200
C2511	C251	0.119600	0.188500	0.666000
C2521	C252	0.255100	0.893500	0.033000
H2031	H203	0.264900	0.903500	0.171000
C2531	C253	0.042200	0.894100	0.840000
H2041	H204	0.061800	0.903800	0.740300
C2541	C254	0.209500	0.895700	0.721000
H2051	H205	0.187200	0.906800	0.646200
C2551	C255	0.033500	0.913700	0.033000
C2561	C256	0.227200	0.863700	0.622000
H2061	H206	0.217600	0.854100	0.481500
C2571	C257	0.994800	0.843300	0.927000
C2581	C258	0.272600	0.860500	0.941000
H2071	H207	0.293500	0.848100	0.020300
C2591	C259	0.201100	0.998700	0.630000
H2081	H208	0.218800	0.977300	0.603100
H2091	H209	0.194200	0.010400	0.484900
H2101	H210	0.214700	0.017000	0.727100
C2601	C260	0.130100	0.917700	0.229000
H2111	H211	0.128000	0.930200	0.376300
H2121	H212	0.108100	0.899800	0.211400
H2131	H213	0.155700	0.904300	0.220000
C2611	C261	0.004400	0.896900	0.179000
H2141	H214	0.997700	0.908900	0.318300
C2621	C262	0.023000	0.859700	0.782000
H2151	H215	0.029500	0.847700	0.642600
C2631	C263	0.985500	0.862700	0.120000
H2161	H216	0.965500	0.852900	0.218500
C2641	C264	0.972600	0.805000	0.886000
O481	O48	0.955000	0.791300	0.049000
Yb11	Yb1	0.543710	0.250000	0.880100
Yb21	Yb2	0.956290	0.750000	0.380100
Yb31	Yb3	0.456290	0.750000	0.119900
Yb41	Yb4	0.043710	0.250000	0.619900
Yb51	Yb5	0.318850	0.750000	0.446300
Yb61	Yb6	0.181150	0.250000	0.946300
Yb71	Yb7	0.681150	0.250000	0.553700
Yb81	Yb8	0.818850	0.750000	0.053700
