data_WUFSAT_clean_PM
_symmetry_space_group_name_H-M	'P1'
_cell_length_a	12.790000
_cell_length_b	12.790000
_cell_length_c	11.191000
_cell_angle_alpha	90.000000
_cell_angle_beta	90.000000
_cell_angle_gamma	90.000000
_symmetry_Int_Tables_number 1

loop_
_symmetry_equiv_pos_as_xyz
'x,y,z'

loop_
_atom_site_label
_atom_site_type_symbol
_atom_site_fract_x
_atom_site_fract_y
_atom_site_fract_z
C11	C1	0.879600	0.911300	0.773900
H11	H1	0.950100	0.915500	0.807700
C21	C2	0.810500	0.991500	0.836800
H21	H2	0.817200	0.066300	0.835500
C31	C3	0.707000	0.010000	0.776700
H31	H3	0.663600	0.950800	0.794800
C41	C4	0.717400	0.021800	0.642600
H41	H4	0.650500	0.014400	0.604500
C51	C5	0.785000	0.936500	0.593300
H51	H5	0.750000	0.869900	0.603700
H61	H6	0.794900	0.947700	0.508300
O11	O1	0.838400	0.810900	0.798300
H71	H7	0.836000	0.760000	0.739000
O21	O2	0.794000	0.957400	0.957100
H81	H8	0.791400	0.004500	0.016700
O31	O3	0.660900	0.102300	0.823800
H91	H9	0.607900	0.098700	0.880500
O41	O4	0.759100	0.123800	0.622700
O51	O5	0.885500	0.932700	0.651000
C61	C6	0.120400	0.088700	0.273900
H101	H10	0.049900	0.084500	0.307700
C71	C7	0.189500	0.008500	0.336800
H111	H11	0.182800	0.933700	0.335500
C81	C8	0.293000	0.990000	0.276700
H121	H12	0.336400	0.049200	0.294800
C91	C9	0.282600	0.978200	0.142600
H131	H13	0.349500	0.985600	0.104500
C101	C10	0.215000	0.063500	0.093300
H141	H14	0.250000	0.130100	0.103700
H151	H15	0.205100	0.052300	0.008300
O61	O6	0.161600	0.189100	0.298300
H161	H16	0.164000	0.240000	0.239000
O71	O7	0.206000	0.042600	0.457100
H171	H17	0.208600	0.995500	0.516700
O81	O8	0.339100	0.897700	0.323800
H181	H18	0.392100	0.901300	0.380500
O91	O9	0.240900	0.876200	0.122700
O101	O10	0.114500	0.067300	0.151000
C111	C11	0.588700	0.379600	0.523900
H191	H19	0.584500	0.450100	0.557700
C121	C12	0.508500	0.310500	0.586800
H201	H20	0.433700	0.317200	0.585500
C131	C13	0.490000	0.207000	0.526700
H211	H21	0.549200	0.163600	0.544800
C141	C14	0.478200	0.217400	0.392600
H221	H22	0.485600	0.150500	0.354500
C151	C15	0.563500	0.285000	0.343300
H231	H23	0.630100	0.250000	0.353700
H241	H24	0.552300	0.294900	0.258300
O111	O11	0.689100	0.338400	0.548300
H251	H25	0.740000	0.336000	0.489000
O121	O12	0.542600	0.294000	0.707100
H261	H26	0.495500	0.291400	0.766700
O131	O13	0.397700	0.160900	0.573800
H271	H27	0.401300	0.107900	0.630500
O141	O14	0.376200	0.259100	0.372700
O151	O15	0.567300	0.385500	0.401000
C161	C16	0.411300	0.620400	0.023900
H281	H28	0.415500	0.549900	0.057700
C171	C17	0.491500	0.689500	0.086800
H291	H29	0.566300	0.682800	0.085500
C181	C18	0.510000	0.793000	0.026700
H301	H30	0.450800	0.836400	0.044800
C191	C19	0.521800	0.782600	0.892600
H311	H31	0.514400	0.849500	0.854500
C201	C20	0.436500	0.715000	0.843300
H321	H32	0.369900	0.750000	0.853700
H331	H33	0.447700	0.705100	0.758300
O161	O16	0.310900	0.661600	0.048300
H341	H34	0.260000	0.664000	0.989000
O171	O17	0.457400	0.706000	0.207100
H351	H35	0.504500	0.708600	0.266700
O181	O18	0.602300	0.839100	0.073800
H361	H36	0.598700	0.892100	0.130500
O191	O19	0.623800	0.740900	0.872700
O201	O20	0.432700	0.614500	0.901000
C211	C21	0.620400	0.411300	0.976100
H371	H37	0.549900	0.415500	0.942300
C221	C22	0.689500	0.491500	0.913200
H381	H38	0.682800	0.566300	0.914500
C231	C23	0.793000	0.510000	0.973300
H391	H39	0.836400	0.450800	0.955200
C241	C24	0.782600	0.521800	0.107400
H401	H40	0.849500	0.514400	0.145500
C251	C25	0.715000	0.436500	0.156700
H411	H41	0.750000	0.369900	0.146300
H421	H42	0.705100	0.447700	0.241700
O211	O21	0.661600	0.310900	0.951700
H431	H43	0.664000	0.260000	0.011000
O221	O22	0.706000	0.457400	0.792900
H441	H44	0.708600	0.504500	0.733300
O231	O23	0.839100	0.602300	0.926200
H451	H45	0.892100	0.598700	0.869500
O241	O24	0.740900	0.623800	0.127300
O251	O25	0.614500	0.432700	0.099000
C261	C26	0.379600	0.588700	0.476100
H461	H46	0.450100	0.584500	0.442300
C271	C27	0.310500	0.508500	0.413200
H471	H47	0.317200	0.433700	0.414500
C281	C28	0.207000	0.490000	0.473300
H481	H48	0.163600	0.549200	0.455200
C291	C29	0.217400	0.478200	0.607400
H491	H49	0.150500	0.485600	0.645500
C301	C30	0.285000	0.563500	0.656700
H501	H50	0.250000	0.630100	0.646300
H511	H51	0.294900	0.552300	0.741700
O261	O26	0.338400	0.689100	0.451700
H521	H52	0.336000	0.740000	0.511000
O271	O27	0.294000	0.542600	0.292900
H531	H53	0.291400	0.495500	0.233300
O281	O28	0.160900	0.397700	0.426200
H541	H54	0.107900	0.401300	0.369500
O291	O29	0.259100	0.376200	0.627300
O301	O30	0.385500	0.567300	0.599000
C311	C31	0.911300	0.879600	0.226100
H551	H55	0.915500	0.950100	0.192300
C321	C32	0.991500	0.810500	0.163200
H561	H56	0.066300	0.817200	0.164500
C331	C33	0.010000	0.707000	0.223300
H571	H57	0.950800	0.663600	0.205200
C341	C34	0.021800	0.717400	0.357400
H581	H58	0.014400	0.650500	0.395500
C351	C35	0.936500	0.785000	0.406700
H591	H59	0.869900	0.750000	0.396300
H601	H60	0.947700	0.794900	0.491700
O311	O31	0.810900	0.838400	0.201700
H611	H61	0.760000	0.836000	0.261000
O321	O32	0.957400	0.794000	0.042900
H621	H62	0.004500	0.791400	0.983300
O331	O33	0.102300	0.660900	0.176200
H631	H63	0.098700	0.607900	0.119500
O341	O34	0.123800	0.759100	0.377300
O351	O35	0.932700	0.885500	0.349000
C361	C36	0.088700	0.120400	0.726100
H641	H64	0.084500	0.049900	0.692300
C371	C37	0.008500	0.189500	0.663200
H651	H65	0.933700	0.182800	0.664500
C381	C38	0.990000	0.293000	0.723300
H661	H66	0.049200	0.336400	0.705200
C391	C39	0.978200	0.282600	0.857400
H671	H67	0.985600	0.349500	0.895500
C401	C40	0.063500	0.215000	0.906700
H681	H68	0.130100	0.250000	0.896300
H691	H69	0.052300	0.205100	0.991700
O361	O36	0.189100	0.161600	0.701700
H701	H70	0.240000	0.164000	0.761000
O371	O37	0.042600	0.206000	0.542900
H711	H71	0.995500	0.208600	0.483300
O381	O38	0.897700	0.339100	0.676200
H721	H72	0.901300	0.392100	0.619500
O391	O39	0.876200	0.240900	0.877300
O401	O40	0.067300	0.114500	0.849000
Ca11	Ca1	0.773800	0.773800	0.000000
Ca21	Ca2	0.226200	0.226200	0.500000
Ca31	Ca3	0.726200	0.273800	0.750000
Ca41	Ca4	0.273800	0.726200	0.250000
