data_WULKAQ_clean_PM
_symmetry_space_group_name_H-M	'P1'
_cell_length_a	26.338600
_cell_length_b	26.338600
_cell_length_c	26.338600
_cell_angle_alpha	90.000000
_cell_angle_beta	90.000000
_cell_angle_gamma	90.000000
_symmetry_Int_Tables_number 1

loop_
_symmetry_equiv_pos_as_xyz
'x,y,z'

loop_
_atom_site_label
_atom_site_type_symbol
_atom_site_fract_x
_atom_site_fract_y
_atom_site_fract_z
O11	O1	0.316880	0.244050	0.947730
O21	O2	0.316880	0.744050	0.447730
O31	O3	0.816880	0.244050	0.447730
O41	O4	0.816880	0.744050	0.947730
O51	O5	0.683120	0.755950	0.947730
O61	O6	0.683120	0.255950	0.447730
O71	O7	0.183120	0.755950	0.447730
O81	O8	0.183120	0.255950	0.947730
O91	O9	0.683120	0.244050	0.052270
O101	O10	0.683120	0.744050	0.552270
O111	O11	0.183120	0.244050	0.552270
O121	O12	0.183120	0.744050	0.052270
O131	O13	0.316880	0.755950	0.052270
O141	O14	0.316880	0.255950	0.552270
O151	O15	0.816880	0.755950	0.552270
O161	O16	0.816880	0.255950	0.052270
O171	O17	0.947730	0.316880	0.244050
O181	O18	0.947730	0.816880	0.744050
O191	O19	0.447730	0.316880	0.744050
O201	O20	0.447730	0.816880	0.244050
O211	O21	0.947730	0.683120	0.755950
O221	O22	0.947730	0.183120	0.255950
O231	O23	0.447730	0.683120	0.255950
O241	O24	0.447730	0.183120	0.755950
O251	O25	0.052270	0.683120	0.244050
O261	O26	0.052270	0.183120	0.744050
O271	O27	0.552270	0.683120	0.744050
O281	O28	0.552270	0.183120	0.244050
O291	O29	0.052270	0.316880	0.755950
O301	O30	0.052270	0.816880	0.255950
O311	O31	0.552270	0.316880	0.255950
O321	O32	0.552270	0.816880	0.755950
O331	O33	0.244050	0.947730	0.316880
O341	O34	0.244050	0.447730	0.816880
O351	O35	0.744050	0.947730	0.816880
O361	O36	0.744050	0.447730	0.316880
O371	O37	0.755950	0.947730	0.683120
O381	O38	0.755950	0.447730	0.183120
O391	O39	0.255950	0.947730	0.183120
O401	O40	0.255950	0.447730	0.683120
O411	O41	0.244050	0.052270	0.683120
O421	O42	0.244050	0.552270	0.183120
O431	O43	0.744050	0.052270	0.183120
O441	O44	0.744050	0.552270	0.683120
O451	O45	0.755950	0.052270	0.316880
O461	O46	0.755950	0.552270	0.816880
O471	O47	0.255950	0.052270	0.816880
O481	O48	0.255950	0.552270	0.316880
O491	O49	0.244050	0.316880	0.052270
O501	O50	0.244050	0.816880	0.552270
O511	O51	0.744050	0.316880	0.552270
O521	O52	0.744050	0.816880	0.052270
O531	O53	0.755950	0.683120	0.052270
O541	O54	0.755950	0.183120	0.552270
O551	O55	0.255950	0.683120	0.552270
O561	O56	0.255950	0.183120	0.052270
O571	O57	0.244050	0.683120	0.947730
O581	O58	0.244050	0.183120	0.447730
O591	O59	0.744050	0.683120	0.447730
O601	O60	0.744050	0.183120	0.947730
O611	O61	0.755950	0.316880	0.947730
O621	O62	0.755950	0.816880	0.447730
O631	O63	0.255950	0.316880	0.447730
O641	O64	0.255950	0.816880	0.947730
O651	O65	0.316880	0.947730	0.755950
O661	O66	0.316880	0.447730	0.255950
O671	O67	0.816880	0.947730	0.255950
O681	O68	0.816880	0.447730	0.755950
O691	O69	0.683120	0.947730	0.244050
O701	O70	0.683120	0.447730	0.744050
O711	O71	0.183120	0.947730	0.744050
O721	O72	0.183120	0.447730	0.244050
O731	O73	0.683120	0.052270	0.755950
O741	O74	0.683120	0.552270	0.255950
O751	O75	0.183120	0.052270	0.255950
O761	O76	0.183120	0.552270	0.755950
O771	O77	0.316880	0.052270	0.244050
O781	O78	0.316880	0.552270	0.744050
O791	O79	0.816880	0.052270	0.744050
O801	O80	0.816880	0.552270	0.244050
O811	O81	0.947730	0.244050	0.683120
O821	O82	0.947730	0.744050	0.183120
O831	O83	0.447730	0.244050	0.183120
O841	O84	0.447730	0.744050	0.683120
O851	O85	0.947730	0.755950	0.316880
O861	O86	0.947730	0.255950	0.816880
O871	O87	0.447730	0.755950	0.816880
O881	O88	0.447730	0.255950	0.316880
O891	O89	0.052270	0.244050	0.316880
O901	O90	0.052270	0.744050	0.816880
O911	O91	0.552270	0.244050	0.816880
O921	O92	0.552270	0.744050	0.316880
O931	O93	0.052270	0.755950	0.683120
O941	O94	0.052270	0.255950	0.183120
O951	O95	0.552270	0.755950	0.183120
O961	O96	0.552270	0.255950	0.683120
O971	O97	0.683120	0.755950	0.052270
O981	O98	0.683120	0.255950	0.552270
O991	O99	0.183120	0.755950	0.552270
O1001	O100	0.183120	0.255950	0.052270
O1011	O101	0.316880	0.244050	0.052270
O1021	O102	0.316880	0.744050	0.552270
O1031	O103	0.816880	0.244050	0.552270
O1041	O104	0.816880	0.744050	0.052270
O1051	O105	0.316880	0.755950	0.947730
O1061	O106	0.316880	0.255950	0.447730
O1071	O107	0.816880	0.755950	0.447730
O1081	O108	0.816880	0.255950	0.947730
O1091	O109	0.683120	0.244050	0.947730
O1101	O110	0.683120	0.744050	0.447730
O1111	O111	0.183120	0.244050	0.447730
O1121	O112	0.183120	0.744050	0.947730
O1131	O113	0.052270	0.683120	0.755950
O1141	O114	0.052270	0.183120	0.255950
O1151	O115	0.552270	0.683120	0.255950
O1161	O116	0.552270	0.183120	0.755950
O1171	O117	0.052270	0.316880	0.244050
O1181	O118	0.052270	0.816880	0.744050
O1191	O119	0.552270	0.316880	0.744050
O1201	O120	0.552270	0.816880	0.244050
O1211	O121	0.947730	0.316880	0.755950
O1221	O122	0.947730	0.816880	0.255950
O1231	O123	0.447730	0.316880	0.255950
O1241	O124	0.447730	0.816880	0.755950
O1251	O125	0.947730	0.683120	0.244050
O1261	O126	0.947730	0.183120	0.744050
O1271	O127	0.447730	0.683120	0.744050
O1281	O128	0.447730	0.183120	0.244050
O1291	O129	0.755950	0.052270	0.683120
O1301	O130	0.755950	0.552270	0.183120
O1311	O131	0.255950	0.052270	0.183120
O1321	O132	0.255950	0.552270	0.683120
O1331	O133	0.244050	0.052270	0.316880
O1341	O134	0.244050	0.552270	0.816880
O1351	O135	0.744050	0.052270	0.816880
O1361	O136	0.744050	0.552270	0.316880
O1371	O137	0.755950	0.947730	0.316880
O1381	O138	0.755950	0.447730	0.816880
O1391	O139	0.255950	0.947730	0.816880
O1401	O140	0.255950	0.447730	0.316880
O1411	O141	0.244050	0.947730	0.683120
O1421	O142	0.244050	0.447730	0.183120
O1431	O143	0.744050	0.947730	0.183120
O1441	O144	0.744050	0.447730	0.683120
O1451	O145	0.755950	0.683120	0.947730
O1461	O146	0.755950	0.183120	0.447730
O1471	O147	0.255950	0.683120	0.447730
O1481	O148	0.255950	0.183120	0.947730
O1491	O149	0.244050	0.316880	0.947730
O1501	O150	0.244050	0.816880	0.447730
O1511	O151	0.744050	0.316880	0.447730
O1521	O152	0.744050	0.816880	0.947730
O1531	O153	0.755950	0.316880	0.052270
O1541	O154	0.755950	0.816880	0.552270
O1551	O155	0.255950	0.316880	0.552270
O1561	O156	0.255950	0.816880	0.052270
O1571	O157	0.244050	0.683120	0.052270
O1581	O158	0.244050	0.183120	0.552270
O1591	O159	0.744050	0.683120	0.552270
O1601	O160	0.744050	0.183120	0.052270
O1611	O161	0.683120	0.052270	0.244050
O1621	O162	0.683120	0.552270	0.744050
O1631	O163	0.183120	0.052270	0.744050
O1641	O164	0.183120	0.552270	0.244050
O1651	O165	0.316880	0.052270	0.755950
O1661	O166	0.316880	0.552270	0.255950
O1671	O167	0.816880	0.052270	0.255950
O1681	O168	0.816880	0.552270	0.755950
O1691	O169	0.316880	0.947730	0.244050
O1701	O170	0.316880	0.447730	0.744050
O1711	O171	0.816880	0.947730	0.744050
O1721	O172	0.816880	0.447730	0.244050
O1731	O173	0.683120	0.947730	0.755950
O1741	O174	0.683120	0.447730	0.255950
O1751	O175	0.183120	0.947730	0.255950
O1761	O176	0.183120	0.447730	0.755950
O1771	O177	0.052270	0.755950	0.316880
O1781	O178	0.052270	0.255950	0.816880
O1791	O179	0.552270	0.755950	0.816880
O1801	O180	0.552270	0.255950	0.316880
O1811	O181	0.052270	0.244050	0.683120
O1821	O182	0.052270	0.744050	0.183120
O1831	O183	0.552270	0.244050	0.183120
O1841	O184	0.552270	0.744050	0.683120
O1851	O185	0.947730	0.755950	0.683120
O1861	O186	0.947730	0.255950	0.183120
O1871	O187	0.447730	0.755950	0.183120
O1881	O188	0.447730	0.255950	0.683120
O1891	O189	0.947730	0.244050	0.316880
O1901	O190	0.947730	0.744050	0.816880
O1911	O191	0.447730	0.244050	0.816880
O1921	O192	0.447730	0.744050	0.316880
Cu11	Cu1	0.284520	0.284520	0.000000
Cu21	Cu2	0.284520	0.784520	0.500000
Cu31	Cu3	0.784520	0.284520	0.500000
Cu41	Cu4	0.784520	0.784520	0.000000
Cu51	Cu5	0.715480	0.715480	0.000000
Cu61	Cu6	0.715480	0.215480	0.500000
Cu71	Cu7	0.215480	0.715480	0.500000
Cu81	Cu8	0.215480	0.215480	0.000000
Cu91	Cu9	0.715480	0.284520	0.000000
Cu101	Cu10	0.715480	0.784520	0.500000
Cu111	Cu11	0.215480	0.284520	0.500000
Cu121	Cu12	0.215480	0.784520	0.000000
Cu131	Cu13	0.284520	0.715480	0.000000
Cu141	Cu14	0.284520	0.215480	0.500000
Cu151	Cu15	0.784520	0.715480	0.500000
Cu161	Cu16	0.784520	0.215480	0.000000
Cu171	Cu17	0.000000	0.284520	0.284520
Cu181	Cu18	0.000000	0.784520	0.784520
Cu191	Cu19	0.500000	0.284520	0.784520
Cu201	Cu20	0.500000	0.784520	0.284520
Cu211	Cu21	0.000000	0.715480	0.715480
Cu221	Cu22	0.000000	0.215480	0.215480
Cu231	Cu23	0.500000	0.715480	0.215480
Cu241	Cu24	0.500000	0.215480	0.715480
Cu251	Cu25	0.000000	0.715480	0.284520
Cu261	Cu26	0.000000	0.215480	0.784520
Cu271	Cu27	0.500000	0.715480	0.784520
Cu281	Cu28	0.500000	0.215480	0.284520
Cu291	Cu29	0.000000	0.284520	0.715480
Cu301	Cu30	0.000000	0.784520	0.215480
Cu311	Cu31	0.500000	0.284520	0.215480
Cu321	Cu32	0.500000	0.784520	0.715480
Cu331	Cu33	0.284520	0.000000	0.284520
Cu341	Cu34	0.284520	0.500000	0.784520
Cu351	Cu35	0.784520	0.000000	0.784520
Cu361	Cu36	0.784520	0.500000	0.284520
Cu371	Cu37	0.715480	0.000000	0.715480
Cu381	Cu38	0.715480	0.500000	0.215480
Cu391	Cu39	0.215480	0.000000	0.215480
Cu401	Cu40	0.215480	0.500000	0.715480
Cu411	Cu41	0.284520	0.000000	0.715480
Cu421	Cu42	0.284520	0.500000	0.215480
Cu431	Cu43	0.784520	0.000000	0.215480
Cu441	Cu44	0.784520	0.500000	0.715480
Cu451	Cu45	0.715480	0.000000	0.284520
Cu461	Cu46	0.715480	0.500000	0.784520
Cu471	Cu47	0.215480	0.000000	0.784520
Cu481	Cu48	0.215480	0.500000	0.284520
C11	C1	0.321580	0.178420	0.886460
C21	C2	0.297290	0.202710	0.930760
C31	C3	0.321580	0.678420	0.386460
C41	C4	0.297290	0.702710	0.430760
C51	C5	0.678420	0.821580	0.886460
C61	C6	0.702710	0.797290	0.930760
C71	C7	0.678420	0.321580	0.386460
C81	C8	0.702710	0.297290	0.430760
C91	C9	0.178420	0.321580	0.886460
C101	C10	0.202710	0.297290	0.930760
C111	C11	0.678420	0.178420	0.113540
C121	C12	0.702710	0.202710	0.069240
C131	C13	0.678420	0.678420	0.613540
C141	C14	0.702710	0.702710	0.569240
C151	C15	0.178420	0.178420	0.613540
C161	C16	0.202710	0.202710	0.569240
C171	C17	0.321580	0.821580	0.113540
C181	C18	0.297290	0.797290	0.069240
C191	C19	0.321580	0.321580	0.613540
C201	C20	0.297290	0.297290	0.569240
C211	C21	0.886460	0.321580	0.178420
C221	C22	0.930760	0.297290	0.202710
C231	C23	0.386460	0.321580	0.678420
C241	C24	0.430760	0.297290	0.702710
C251	C25	0.886460	0.678420	0.821580
C261	C26	0.930760	0.702710	0.797290
C271	C27	0.886460	0.178420	0.321580
C281	C28	0.930760	0.202710	0.297290
C291	C29	0.386460	0.678420	0.321580
C301	C30	0.430760	0.702710	0.297290
C311	C31	0.113540	0.678420	0.178420
C321	C32	0.069240	0.702710	0.202710
C331	C33	0.613540	0.678420	0.678420
C341	C34	0.569240	0.702710	0.702710
C351	C35	0.613540	0.178420	0.178420
C361	C36	0.569240	0.202710	0.202710
C371	C37	0.113540	0.321580	0.821580
C381	C38	0.069240	0.297290	0.797290
C391	C39	0.613540	0.321580	0.321580
C401	C40	0.569240	0.297290	0.297290
C411	C41	0.178420	0.886460	0.321580
C421	C42	0.202710	0.930760	0.297290
C431	C43	0.178420	0.386460	0.821580
C441	C44	0.202710	0.430760	0.797290
C451	C45	0.821580	0.886460	0.678420
C461	C46	0.797290	0.930760	0.702710
C471	C47	0.821580	0.386460	0.178420
C481	C48	0.797290	0.430760	0.202710
C491	C49	0.321580	0.886460	0.178420
C501	C50	0.297290	0.930760	0.202710
C511	C51	0.178420	0.113540	0.678420
C521	C52	0.202710	0.069240	0.702710
C531	C53	0.178420	0.613540	0.178420
C541	C54	0.202710	0.569240	0.202710
C551	C55	0.821580	0.113540	0.321580
C561	C56	0.797290	0.069240	0.297290
C571	C57	0.821580	0.613540	0.821580
C581	C58	0.797290	0.569240	0.797290
C591	C59	0.321580	0.613540	0.321580
C601	C60	0.297290	0.569240	0.297290
C611	C61	0.178420	0.321580	0.113540
C621	C62	0.202710	0.297290	0.069240
C631	C63	0.178420	0.821580	0.613540
C641	C64	0.202710	0.797290	0.569240
C651	C65	0.821580	0.678420	0.113540
C661	C66	0.797290	0.702710	0.069240
C671	C67	0.821580	0.178420	0.613540
C681	C68	0.797290	0.202710	0.569240
C691	C69	0.321580	0.178420	0.113540
C701	C70	0.297290	0.202710	0.069240
C711	C71	0.178420	0.678420	0.886460
C721	C72	0.202710	0.702710	0.930760
C731	C73	0.178420	0.178420	0.386460
C741	C74	0.202710	0.202710	0.430760
C751	C75	0.821580	0.321580	0.886460
C761	C76	0.797290	0.297290	0.930760
C771	C77	0.821580	0.821580	0.386460
C781	C78	0.797290	0.797290	0.430760
C791	C79	0.321580	0.321580	0.386460
C801	C80	0.297290	0.297290	0.430760
C811	C81	0.321580	0.886460	0.821580
C821	C82	0.297290	0.930760	0.797290
C831	C83	0.321580	0.386460	0.321580
C841	C84	0.297290	0.430760	0.297290
C851	C85	0.678420	0.886460	0.178420
C861	C86	0.702710	0.930760	0.202710
C871	C87	0.678420	0.386460	0.678420
C881	C88	0.702710	0.430760	0.702710
C891	C89	0.178420	0.386460	0.178420
C901	C90	0.202710	0.430760	0.202710
C911	C91	0.678420	0.113540	0.821580
C921	C92	0.702710	0.069240	0.797290
C931	C93	0.678420	0.613540	0.321580
C941	C94	0.702710	0.569240	0.297290
C951	C95	0.178420	0.113540	0.321580
C961	C96	0.202710	0.069240	0.297290
C971	C97	0.321580	0.113540	0.178420
C981	C98	0.297290	0.069240	0.202710
C991	C99	0.321580	0.613540	0.678420
C1001	C100	0.297290	0.569240	0.702710
C1011	C101	0.886460	0.178420	0.678420
C1021	C102	0.930760	0.202710	0.702710
C1031	C103	0.386460	0.178420	0.178420
C1041	C104	0.430760	0.202710	0.202710
C1051	C105	0.886460	0.821580	0.321580
C1061	C106	0.930760	0.797290	0.297290
C1071	C107	0.386460	0.821580	0.821580
C1081	C108	0.430760	0.797290	0.797290
C1091	C109	0.386460	0.321580	0.321580
C1101	C110	0.430760	0.297290	0.297290
C1111	C111	0.113540	0.178420	0.321580
C1121	C112	0.069240	0.202710	0.297290
C1131	C113	0.613540	0.178420	0.821580
C1141	C114	0.569240	0.202710	0.797290
C1151	C115	0.113540	0.821580	0.678420
C1161	C116	0.069240	0.797290	0.702710
C1171	C117	0.113540	0.321580	0.178420
C1181	C118	0.069240	0.297290	0.202710
C1191	C119	0.613540	0.821580	0.178420
C1201	C120	0.569240	0.797290	0.202710
C1211	C121	0.678420	0.821580	0.113540
C1221	C122	0.702710	0.797290	0.069240
C1231	C123	0.678420	0.321580	0.613540
C1241	C124	0.702710	0.297290	0.569240
C1251	C125	0.321580	0.678420	0.613540
C1261	C126	0.297290	0.702710	0.569240
C1271	C127	0.321580	0.821580	0.886460
C1281	C128	0.297290	0.797290	0.930760
C1291	C129	0.678420	0.178420	0.886460
C1301	C130	0.702710	0.202710	0.930760
C1311	C131	0.678420	0.678420	0.386460
C1321	C132	0.702710	0.702710	0.430760
C1331	C133	0.113540	0.678420	0.821580
C1341	C134	0.069240	0.702710	0.797290
C1351	C135	0.613540	0.678420	0.321580
C1361	C136	0.569240	0.702710	0.297290
C1371	C137	0.613540	0.321580	0.678420
C1381	C138	0.569240	0.297290	0.702710
C1391	C139	0.886460	0.321580	0.821580
C1401	C140	0.930760	0.297290	0.797290
C1411	C141	0.886460	0.678420	0.178420
C1421	C142	0.930760	0.702710	0.202710
C1431	C143	0.386460	0.678420	0.678420
C1441	C144	0.430760	0.702710	0.702710
C1451	C145	0.821580	0.113540	0.678420
C1461	C146	0.797290	0.069240	0.702710
C1471	C147	0.821580	0.613540	0.178420
C1481	C148	0.797290	0.569240	0.202710
C1491	C149	0.178420	0.613540	0.821580
C1501	C150	0.202710	0.569240	0.797290
C1511	C151	0.821580	0.886460	0.321580
C1521	C152	0.797290	0.930760	0.297290
C1531	C153	0.821580	0.386460	0.821580
C1541	C154	0.797290	0.430760	0.797290
C1551	C155	0.178420	0.886460	0.678420
C1561	C156	0.202710	0.930760	0.702710
C1571	C157	0.821580	0.678420	0.886460
C1581	C158	0.797290	0.702710	0.930760
C1591	C159	0.821580	0.178420	0.386460
C1601	C160	0.797290	0.202710	0.430760
C1611	C161	0.178420	0.821580	0.386460
C1621	C162	0.202710	0.797290	0.430760
C1631	C163	0.821580	0.321580	0.113540
C1641	C164	0.797290	0.297290	0.069240
C1651	C165	0.821580	0.821580	0.613540
C1661	C166	0.797290	0.797290	0.569240
C1671	C167	0.178420	0.678420	0.113540
C1681	C168	0.202710	0.702710	0.069240
C1691	C169	0.678420	0.113540	0.178420
C1701	C170	0.702710	0.069240	0.202710
C1711	C171	0.678420	0.613540	0.678420
C1721	C172	0.702710	0.569240	0.702710
C1731	C173	0.321580	0.113540	0.821580
C1741	C174	0.297290	0.069240	0.797290
C1751	C175	0.321580	0.386460	0.678420
C1761	C176	0.297290	0.430760	0.702710
C1771	C177	0.678420	0.886460	0.821580
C1781	C178	0.702710	0.930760	0.797290
C1791	C179	0.678420	0.386460	0.321580
C1801	C180	0.702710	0.430760	0.297290
C1811	C181	0.113540	0.821580	0.321580
C1821	C182	0.069240	0.797290	0.297290
C1831	C183	0.613540	0.821580	0.821580
C1841	C184	0.569240	0.797290	0.797290
C1851	C185	0.113540	0.178420	0.678420
C1861	C186	0.069240	0.202710	0.702710
C1871	C187	0.886460	0.821580	0.678420
C1881	C188	0.930760	0.797290	0.702710
C1891	C189	0.386460	0.821580	0.178420
C1901	C190	0.430760	0.797290	0.202710
C1911	C191	0.386460	0.178420	0.821580
C1921	C192	0.430760	0.202710	0.797290
C1931	C193	0.364810	0.198930	0.864810
H11	H1	0.381030	0.235400	0.881030
C1941	C194	0.364810	0.698930	0.364810
H21	H2	0.381030	0.735400	0.381030
C1951	C195	0.635190	0.801070	0.864810
H31	H3	0.618970	0.764600	0.881030
C1961	C196	0.635190	0.301070	0.364810
H41	H4	0.618970	0.264600	0.381030
C1971	C197	0.135190	0.801070	0.364810
H51	H5	0.118970	0.764600	0.381030
C1981	C198	0.635190	0.198930	0.135190
H61	H6	0.618970	0.235400	0.118970
C1991	C199	0.635190	0.698930	0.635190
H71	H7	0.618970	0.735400	0.618970
C2001	C200	0.135190	0.698930	0.135190
H81	H8	0.118970	0.735400	0.118970
C2011	C201	0.364810	0.801070	0.135190
H91	H9	0.381030	0.764600	0.118970
C2021	C202	0.364810	0.301070	0.635190
H101	H10	0.381030	0.264600	0.618970
C2031	C203	0.864810	0.364810	0.198930
H111	H11	0.881030	0.381030	0.235400
C2041	C204	0.864810	0.864810	0.698930
H121	H12	0.881030	0.881030	0.735400
C2051	C205	0.364810	0.364810	0.698930
H131	H13	0.381030	0.381030	0.735400
C2061	C206	0.864810	0.635190	0.801070
H141	H14	0.881030	0.618970	0.764600
C2071	C207	0.864810	0.135190	0.301070
H151	H15	0.881030	0.118970	0.264600
C2081	C208	0.364810	0.135190	0.801070
H161	H16	0.381030	0.118970	0.764600
C2091	C209	0.135190	0.635190	0.198930
H171	H17	0.118970	0.618970	0.235400
C2101	C210	0.135190	0.135190	0.698930
H181	H18	0.118970	0.118970	0.735400
C2111	C211	0.135190	0.364810	0.801070
H191	H19	0.118970	0.381030	0.764600
C2121	C212	0.135190	0.864810	0.301070
H201	H20	0.118970	0.881030	0.264600
C2131	C213	0.198930	0.864810	0.364810
H211	H21	0.235400	0.881030	0.381030
C2141	C214	0.698930	0.864810	0.864810
H221	H22	0.735400	0.881030	0.881030
C2151	C215	0.698930	0.364810	0.364810
H231	H23	0.735400	0.381030	0.381030
C2161	C216	0.801070	0.864810	0.635190
H241	H24	0.764600	0.881030	0.618970
C2171	C217	0.801070	0.364810	0.135190
H251	H25	0.764600	0.381030	0.118970
C2181	C218	0.301070	0.864810	0.135190
H261	H26	0.264600	0.881030	0.118970
C2191	C219	0.198930	0.135190	0.635190
H271	H27	0.235400	0.118970	0.618970
C2201	C220	0.698930	0.135190	0.135190
H281	H28	0.735400	0.118970	0.118970
C2211	C221	0.801070	0.135190	0.364810
H291	H29	0.764600	0.118970	0.381030
C2221	C222	0.301070	0.135190	0.864810
H301	H30	0.264600	0.118970	0.881030
C2231	C223	0.198930	0.364810	0.135190
H311	H31	0.235400	0.381030	0.118970
C2241	C224	0.698930	0.364810	0.635190
H321	H32	0.735400	0.381030	0.618970
C2251	C225	0.801070	0.635190	0.135190
H331	H33	0.764600	0.618970	0.118970
C2261	C226	0.301070	0.635190	0.635190
H341	H34	0.264600	0.618970	0.618970
C2271	C227	0.301070	0.135190	0.135190
H351	H35	0.264600	0.118970	0.118970
C2281	C228	0.198930	0.635190	0.864810
H361	H36	0.235400	0.618970	0.881030
C2291	C229	0.198930	0.135190	0.364810
H371	H37	0.235400	0.118970	0.381030
C2301	C230	0.698930	0.635190	0.364810
H381	H38	0.735400	0.618970	0.381030
C2311	C231	0.801070	0.364810	0.864810
H391	H39	0.764600	0.381030	0.881030
C2321	C232	0.301070	0.364810	0.364810
H401	H40	0.264600	0.381030	0.381030
C2331	C233	0.364810	0.864810	0.801070
H411	H41	0.381030	0.881030	0.764600
C2341	C234	0.364810	0.364810	0.301070
H421	H42	0.381030	0.381030	0.264600
C2351	C235	0.635190	0.864810	0.198930
H431	H43	0.618970	0.881030	0.235400
C2361	C236	0.635190	0.364810	0.698930
H441	H44	0.618970	0.381030	0.735400
C2371	C237	0.135190	0.364810	0.198930
H451	H45	0.118970	0.381030	0.235400
C2381	C238	0.635190	0.135190	0.801070
H461	H46	0.618970	0.118970	0.764600
C2391	C239	0.635190	0.635190	0.301070
H471	H47	0.618970	0.618970	0.264600
C2401	C240	0.135190	0.135190	0.301070
H481	H48	0.118970	0.118970	0.264600
C2411	C241	0.364810	0.135190	0.198930
H491	H49	0.381030	0.118970	0.235400
C2421	C242	0.364810	0.635190	0.698930
H501	H50	0.381030	0.618970	0.735400
C2431	C243	0.864810	0.198930	0.635190
H511	H51	0.881030	0.235400	0.618970
C2441	C244	0.864810	0.698930	0.135190
H521	H52	0.881030	0.735400	0.118970
C2451	C245	0.364810	0.198930	0.135190
H531	H53	0.381030	0.235400	0.118970
C2461	C246	0.864810	0.801070	0.364810
H541	H54	0.881030	0.764600	0.381030
C2471	C247	0.864810	0.301070	0.864810
H551	H55	0.881030	0.264600	0.881030
C2481	C248	0.364810	0.301070	0.364810
H561	H56	0.381030	0.264600	0.381030
C2491	C249	0.135190	0.198930	0.364810
H571	H57	0.118970	0.235400	0.381030
C2501	C250	0.135190	0.698930	0.864810
H581	H58	0.118970	0.735400	0.881030
C2511	C251	0.135190	0.801070	0.635190
H591	H59	0.118970	0.764600	0.618970
C2521	C252	0.135190	0.301070	0.135190
H601	H60	0.118970	0.264600	0.118970
C2531	C253	0.635190	0.801070	0.135190
H611	H61	0.618970	0.764600	0.118970
C2541	C254	0.635190	0.301070	0.635190
H621	H62	0.618970	0.264600	0.618970
C2551	C255	0.364810	0.698930	0.635190
H631	H63	0.381030	0.735400	0.618970
C2561	C256	0.364810	0.801070	0.864810
H641	H64	0.381030	0.764600	0.881030
C2571	C257	0.635190	0.198930	0.864810
H651	H65	0.618970	0.235400	0.881030
C2581	C258	0.635190	0.698930	0.364810
H661	H66	0.618970	0.735400	0.381030
C2591	C259	0.135190	0.635190	0.801070
H671	H67	0.118970	0.618970	0.764600
C2601	C260	0.135190	0.864810	0.698930
H681	H68	0.118970	0.881030	0.735400
C2611	C261	0.864810	0.364810	0.801070
H691	H69	0.881030	0.381030	0.764600
C2621	C262	0.864810	0.864810	0.301070
H701	H70	0.881030	0.881030	0.264600
C2631	C263	0.864810	0.635190	0.198930
H711	H71	0.881030	0.618970	0.235400
C2641	C264	0.864810	0.135190	0.698930
H721	H72	0.881030	0.118970	0.735400
C2651	C265	0.801070	0.135190	0.635190
H731	H73	0.764600	0.118970	0.618970
C2661	C266	0.698930	0.135190	0.864810
H741	H74	0.735400	0.118970	0.881030
C2671	C267	0.801070	0.864810	0.364810
H751	H75	0.764600	0.881030	0.381030
C2681	C268	0.301070	0.864810	0.864810
H761	H76	0.264600	0.881030	0.881030
C2691	C269	0.198930	0.864810	0.635190
H771	H77	0.235400	0.881030	0.618970
C2701	C270	0.698930	0.864810	0.135190
H781	H78	0.735400	0.881030	0.118970
C2711	C271	0.801070	0.635190	0.864810
H791	H79	0.764600	0.618970	0.881030
C2721	C272	0.301070	0.635190	0.364810
H801	H80	0.264600	0.618970	0.381030
C2731	C273	0.198930	0.364810	0.864810
H811	H81	0.235400	0.381030	0.881030
C2741	C274	0.301070	0.364810	0.635190
H821	H82	0.264600	0.381030	0.618970
C2751	C275	0.198930	0.635190	0.135190
H831	H83	0.235400	0.618970	0.118970
C2761	C276	0.698930	0.635190	0.635190
H841	H84	0.735400	0.618970	0.618970
C2771	C277	0.635190	0.135190	0.198930
H851	H85	0.618970	0.118970	0.235400
C2781	C278	0.635190	0.635190	0.698930
H861	H86	0.618970	0.618970	0.735400
C2791	C279	0.364810	0.635190	0.301070
H871	H87	0.381030	0.618970	0.264600
C2801	C280	0.364810	0.864810	0.198930
H881	H88	0.381030	0.881030	0.235400
C2811	C281	0.635190	0.864810	0.801070
H891	H89	0.618970	0.881030	0.764600
C2821	C282	0.635190	0.364810	0.301070
H901	H90	0.618970	0.381030	0.264600
C2831	C283	0.135190	0.301070	0.864810
H911	H91	0.118970	0.264600	0.881030
C2841	C284	0.135190	0.198930	0.635190
H921	H92	0.118970	0.235400	0.618970
C2851	C285	0.864810	0.801070	0.635190
H931	H93	0.881030	0.764600	0.618970
C2861	C286	0.864810	0.301070	0.135190
H941	H94	0.881030	0.264600	0.118970
C2871	C287	0.864810	0.198930	0.364810
H951	H95	0.881030	0.235400	0.381030
C2881	C288	0.864810	0.698930	0.864810
H961	H96	0.881030	0.735400	0.881030
