data_WULQUR_clean_PM
_symmetry_space_group_name_H-M	'P1'
_cell_length_a	9.437000
_cell_length_b	15.378000
_cell_length_c	13.319000
_cell_angle_alpha	90.000000
_cell_angle_beta	106.383000
_cell_angle_gamma	90.000000
_symmetry_Int_Tables_number 1

loop_
_symmetry_equiv_pos_as_xyz
'x,y,z'

loop_
_atom_site_label
_atom_site_type_symbol
_atom_site_fract_x
_atom_site_fract_y
_atom_site_fract_z
C11	C1	0.063600	0.189100	0.135700
C21	C2	0.062400	0.255900	0.218200
C31	C3	0.935900	0.264900	0.251600
H11	H1	0.854900	0.229100	0.224000
C41	C4	0.930400	0.327500	0.326200
C51	C5	0.792200	0.334400	0.363500
C61	C6	0.051800	0.380100	0.367600
H21	H2	0.047500	0.422800	0.416200
C71	C7	0.180000	0.369500	0.337300
C81	C8	0.183900	0.308100	0.262500
H31	H3	0.269300	0.301600	0.241500
C91	C9	0.312800	0.423900	0.388200
O11	O1	0.964600	0.133600	0.111800
O21	O2	0.168200	0.192200	0.093600
O31	O3	0.436300	0.396500	0.382200
O41	O4	0.291400	0.490400	0.435600
O51	O5	0.785500	0.399400	0.420000
O61	O6	0.695200	0.278400	0.336500
Zn11	Zn1	0.126170	0.096320	0.988680
C101	C10	0.436400	0.689100	0.364300
C111	C11	0.437600	0.755900	0.281800
C121	C12	0.564100	0.764900	0.248400
H41	H4	0.645100	0.729100	0.276000
C131	C13	0.569600	0.827500	0.173800
C141	C14	0.707800	0.834400	0.136500
C151	C15	0.448200	0.880100	0.132400
H51	H5	0.452500	0.922800	0.083800
C161	C16	0.320000	0.869500	0.162700
C171	C17	0.316100	0.808100	0.237500
H61	H6	0.230700	0.801600	0.258500
C181	C18	0.187200	0.923900	0.111800
O71	O7	0.535400	0.633600	0.388200
O81	O8	0.331800	0.692200	0.406400
O91	O9	0.063700	0.896500	0.117800
O101	O10	0.208600	0.990400	0.064400
O111	O11	0.714500	0.899400	0.080000
O121	O12	0.804800	0.778400	0.163500
Zn21	Zn2	0.373830	0.596320	0.511320
C191	C19	0.936400	0.810900	0.864300
C201	C20	0.937600	0.744100	0.781800
C211	C21	0.064100	0.735100	0.748400
H71	H7	0.145100	0.770900	0.776000
C221	C22	0.069600	0.672500	0.673800
C231	C23	0.207800	0.665600	0.636500
C241	C24	0.948200	0.619900	0.632400
H81	H8	0.952500	0.577200	0.583800
C251	C25	0.820000	0.630500	0.662700
C261	C26	0.816100	0.691900	0.737500
H91	H9	0.730700	0.698400	0.758500
C271	C27	0.687200	0.576100	0.611800
O131	O13	0.035400	0.866400	0.888200
O141	O14	0.831800	0.807800	0.906400
O151	O15	0.563700	0.603500	0.617800
O161	O16	0.708600	0.509600	0.564400
O171	O17	0.214500	0.600600	0.580000
O181	O18	0.304800	0.721600	0.663500
Zn31	Zn3	0.873830	0.903680	0.011320
C281	C28	0.563600	0.310900	0.635700
C291	C29	0.562400	0.244100	0.718200
C301	C30	0.435900	0.235100	0.751600
H101	H10	0.354900	0.270900	0.724000
C311	C31	0.430400	0.172500	0.826200
C321	C32	0.292200	0.165600	0.863500
C331	C33	0.551800	0.119900	0.867600
H111	H11	0.547500	0.077200	0.916200
C341	C34	0.680000	0.130500	0.837300
C351	C35	0.683900	0.191900	0.762500
H121	H12	0.769300	0.198400	0.741500
C361	C36	0.812800	0.076100	0.888200
O191	O19	0.464600	0.366400	0.611800
O201	O20	0.668200	0.307800	0.593600
O211	O21	0.936300	0.103500	0.882200
O221	O22	0.791400	0.009600	0.935600
O231	O23	0.285500	0.100600	0.920000
O241	O24	0.195200	0.221600	0.836500
Zn41	Zn4	0.626170	0.403680	0.488680
