data_WUNSEE01_charged_PM
_symmetry_space_group_name_H-M	'P1'
_cell_length_a	15.859100
_cell_length_b	15.859100
_cell_length_c	21.685000
_cell_angle_alpha	90.000000
_cell_angle_beta	90.000000
_cell_angle_gamma	90.000000
_symmetry_Int_Tables_number 1

loop_
_symmetry_equiv_pos_as_xyz
'x,y,z'

loop_
_atom_site_label
_atom_site_type_symbol
_atom_site_fract_x
_atom_site_fract_y
_atom_site_fract_z
Cd11	Cd1	0.441370	0.441370	0.000000
Cd21	Cd2	0.558630	0.558630	0.500000
Cd31	Cd3	0.058630	0.941370	0.250000
Cd41	Cd4	0.941370	0.058630	0.750000
H11	H1	0.340200	0.559700	0.908500
H21	H2	0.233600	0.654300	0.893800
H31	H3	0.151800	0.599200	0.063700
H41	H4	0.263900	0.509100	0.074400
H51	H5	0.032300	0.662700	0.037400
H61	H6	0.934100	0.768600	0.029300
H71	H7	0.951500	0.875800	0.959300
H81	H8	0.172900	0.777900	0.907100
H91	H9	0.200500	0.992800	0.710100
H101	H10	0.297600	0.085900	0.666400
H111	H11	0.349800	0.198600	0.721700
H121	H12	0.198600	0.138100	0.862800
H131	H13	0.410600	0.287900	0.784000
H141	H14	0.459500	0.389600	0.850000
H151	H15	0.268700	0.360100	0.958700
H161	H16	0.215400	0.255600	0.898300
H171	H17	0.233000	0.935200	0.923100
H181	H18	0.267000	0.954900	0.862500
H191	H19	0.659800	0.440300	0.408500
H201	H20	0.766400	0.345700	0.393800
H211	H21	0.848200	0.400800	0.563700
H221	H22	0.736100	0.490900	0.574400
H231	H23	0.967700	0.337300	0.537400
H241	H24	0.065900	0.231400	0.529300
H251	H25	0.048500	0.124200	0.459300
H261	H26	0.827100	0.222100	0.407100
H271	H27	0.799500	0.007200	0.210100
H281	H28	0.702400	0.914100	0.166400
H291	H29	0.650200	0.801400	0.221700
H301	H30	0.801400	0.861900	0.362800
H311	H31	0.589400	0.712100	0.284000
H321	H32	0.540500	0.610400	0.350000
H331	H33	0.731300	0.639900	0.458700
H341	H34	0.784600	0.744400	0.398300
H351	H35	0.767000	0.064800	0.423100
H361	H36	0.733000	0.045100	0.362500
H371	H37	0.940300	0.840200	0.158500
H381	H38	0.845700	0.733600	0.143800
H391	H39	0.900800	0.651800	0.313700
H401	H40	0.990900	0.763900	0.324400
H411	H41	0.837300	0.532300	0.287400
H421	H42	0.731400	0.434100	0.279300
H431	H43	0.624200	0.451500	0.209300
H441	H44	0.722100	0.672900	0.157100
H451	H45	0.507200	0.700500	0.960100
H461	H46	0.414100	0.797600	0.916400
H471	H47	0.301400	0.849800	0.971700
H481	H48	0.361900	0.698600	0.112800
H491	H49	0.212100	0.910600	0.034000
H501	H50	0.110400	0.959500	0.100000
H511	H51	0.139900	0.768700	0.208700
H521	H52	0.244400	0.715400	0.148300
H531	H53	0.564800	0.733000	0.173100
H541	H54	0.545100	0.767000	0.112500
H551	H55	0.059700	0.159800	0.658500
H561	H56	0.154300	0.266400	0.643800
H571	H57	0.099200	0.348200	0.813700
H581	H58	0.009100	0.236100	0.824400
H591	H59	0.162700	0.467700	0.787400
H601	H60	0.268600	0.565900	0.779300
H611	H61	0.375800	0.548500	0.709300
H621	H62	0.277900	0.327100	0.657100
H631	H63	0.492800	0.299500	0.460100
H641	H64	0.585900	0.202400	0.416400
H651	H65	0.698600	0.150200	0.471700
H661	H66	0.638100	0.301400	0.612800
H671	H67	0.787900	0.089400	0.534000
H681	H68	0.889600	0.040500	0.600000
H691	H69	0.860100	0.231300	0.708700
H701	H70	0.755600	0.284600	0.648300
H711	H71	0.435200	0.267000	0.673100
H721	H72	0.454900	0.233000	0.612500
H731	H73	0.159800	0.059700	0.341500
H741	H74	0.266400	0.154300	0.356200
H751	H75	0.348200	0.099200	0.186300
H761	H76	0.236100	0.009100	0.175600
H771	H77	0.467700	0.162700	0.212600
H781	H78	0.565900	0.268600	0.220700
H791	H79	0.548500	0.375800	0.290700
H801	H80	0.327100	0.277900	0.342900
H811	H81	0.299500	0.492800	0.539900
H821	H82	0.202400	0.585900	0.583600
H831	H83	0.150200	0.698600	0.528300
H841	H84	0.301400	0.638100	0.387200
H851	H85	0.089400	0.787900	0.466000
H861	H86	0.040500	0.889600	0.400000
H871	H87	0.231300	0.860100	0.291300
H881	H88	0.284600	0.755600	0.351700
H891	H89	0.267000	0.435200	0.326900
H901	H90	0.233000	0.454900	0.387500
H911	H91	0.840200	0.940300	0.841500
H921	H92	0.733600	0.845700	0.856200
H931	H93	0.651800	0.900800	0.686300
H941	H94	0.763900	0.990900	0.675600
H951	H95	0.532300	0.837300	0.712600
H961	H96	0.434100	0.731400	0.720700
H971	H97	0.451500	0.624200	0.790700
H981	H98	0.672900	0.722100	0.842900
H991	H99	0.700500	0.507200	0.039900
H1001	H100	0.797600	0.414100	0.083600
H1011	H101	0.849800	0.301400	0.028300
H1021	H102	0.698600	0.361900	0.887200
H1031	H103	0.910600	0.212100	0.966000
H1041	H104	0.959500	0.110400	0.900000
H1051	H105	0.768700	0.139900	0.791300
H1061	H106	0.715400	0.244400	0.851700
H1071	H107	0.733000	0.564800	0.826900
H1081	H108	0.767000	0.545100	0.887500
H1091	H109	0.559700	0.340200	0.091500
H1101	H110	0.654300	0.233600	0.106200
H1111	H111	0.599200	0.151800	0.936300
H1121	H112	0.509100	0.263900	0.925600
H1131	H113	0.662700	0.032300	0.962600
H1141	H114	0.768600	0.934100	0.970700
H1151	H115	0.875800	0.951500	0.040700
H1161	H116	0.777900	0.172900	0.092900
H1171	H117	0.992800	0.200500	0.289900
H1181	H118	0.085900	0.297600	0.333600
H1191	H119	0.198600	0.349800	0.278300
H1201	H120	0.138100	0.198600	0.137200
H1211	H121	0.287900	0.410600	0.216000
H1221	H122	0.389600	0.459500	0.150000
H1231	H123	0.360100	0.268700	0.041300
H1241	H124	0.255600	0.215400	0.101700
H1251	H125	0.935200	0.233000	0.076900
H1261	H126	0.954900	0.267000	0.137500
H1271	H127	0.440300	0.659800	0.591500
H1281	H128	0.345700	0.766400	0.606200
H1291	H129	0.400800	0.848200	0.436300
H1301	H130	0.490900	0.736100	0.425600
H1311	H131	0.337300	0.967700	0.462600
H1321	H132	0.231400	0.065900	0.470700
H1331	H133	0.124200	0.048500	0.540700
H1341	H134	0.222100	0.827100	0.592900
H1351	H135	0.007200	0.799500	0.789900
H1361	H136	0.914100	0.702400	0.833600
H1371	H137	0.801400	0.650200	0.778300
H1381	H138	0.861900	0.801400	0.637200
H1391	H139	0.712100	0.589400	0.716000
H1401	H140	0.610400	0.540500	0.650000
H1411	H141	0.639900	0.731300	0.541300
H1421	H142	0.744400	0.784600	0.601700
H1431	H143	0.064800	0.767000	0.576900
H1441	H144	0.045100	0.733000	0.637500
C11	C1	0.302100	0.568500	0.940400
C21	C2	0.238300	0.625700	0.931100
C31	C3	0.180500	0.640500	0.978800
C41	C4	0.190300	0.593600	0.031600
C51	C5	0.257400	0.538000	0.037400
C61	C6	0.114300	0.707100	0.972200
C71	C7	0.040800	0.706300	0.009400
C81	C8	0.981800	0.769700	0.004400
C91	C9	0.992600	0.834300	0.963300
C101	C10	0.066100	0.837500	0.926900
C111	C11	0.124800	0.775300	0.931500
C121	C12	0.074200	0.907300	0.883200
C131	C13	0.126300	0.002200	0.820700
C141	C14	0.188100	0.058200	0.790600
C151	C15	0.218900	0.040000	0.731600
C161	C16	0.278300	0.095300	0.706200
C171	C17	0.309000	0.163900	0.739200
C181	C18	0.279300	0.180900	0.797800
C191	C19	0.218800	0.127400	0.823300
C201	C20	0.309300	0.254300	0.835300
C211	C21	0.381800	0.299000	0.820400
C221	C22	0.410600	0.360600	0.860700
C231	C23	0.299300	0.342900	0.924300
C241	C24	0.266500	0.280500	0.887800
C251	C25	0.697900	0.431500	0.440400
C261	C26	0.761700	0.374300	0.431100
C271	C27	0.819500	0.359500	0.478800
C281	C28	0.809700	0.406400	0.531600
C291	C29	0.742600	0.462000	0.537400
C301	C30	0.885700	0.292900	0.472200
C311	C31	0.959200	0.293700	0.509400
C321	C32	0.018200	0.230300	0.504400
C331	C33	0.007400	0.165700	0.463300
C341	C34	0.933900	0.162500	0.426900
C351	C35	0.875200	0.224700	0.431500
C361	C36	0.925800	0.092700	0.383200
C371	C37	0.873700	0.997800	0.320700
C381	C38	0.811900	0.941800	0.290600
C391	C39	0.781100	0.960000	0.231600
C401	C40	0.721700	0.904700	0.206200
C411	C41	0.691000	0.836100	0.239200
C421	C42	0.720700	0.819100	0.297800
C431	C43	0.781200	0.872600	0.323300
C441	C44	0.690700	0.745700	0.335300
C451	C45	0.618200	0.701000	0.320400
C461	C46	0.589400	0.639400	0.360700
C471	C47	0.700700	0.657100	0.424300
C481	C48	0.733500	0.719500	0.387800
C491	C49	0.931500	0.802100	0.190400
C501	C50	0.874300	0.738300	0.181100
C511	C51	0.859500	0.680500	0.228800
C521	C52	0.906400	0.690300	0.281600
C531	C53	0.962000	0.757400	0.287400
C541	C54	0.792900	0.614300	0.222200
C551	C55	0.793700	0.540800	0.259400
C561	C56	0.730300	0.481800	0.254400
C571	C57	0.665700	0.492600	0.213300
C581	C58	0.662500	0.566100	0.176900
C591	C59	0.724700	0.624800	0.181500
C601	C60	0.592700	0.574200	0.133200
C611	C61	0.497800	0.626300	0.070700
C621	C62	0.441800	0.688100	0.040600
C631	C63	0.460000	0.718900	0.981600
C641	C64	0.404700	0.778300	0.956200
C651	C65	0.336100	0.809000	0.989200
C661	C66	0.319100	0.779300	0.047800
C671	C67	0.372600	0.718800	0.073300
C681	C68	0.245700	0.809300	0.085300
C691	C69	0.201000	0.881800	0.070400
C701	C70	0.139400	0.910600	0.110700
C711	C71	0.157100	0.799300	0.174300
C721	C72	0.219500	0.766500	0.137800
C731	C73	0.068500	0.197900	0.690400
C741	C74	0.125700	0.261700	0.681100
C751	C75	0.140500	0.319500	0.728800
C761	C76	0.093600	0.309700	0.781600
C771	C77	0.038000	0.242600	0.787400
C781	C78	0.207100	0.385700	0.722200
C791	C79	0.206300	0.459200	0.759400
C801	C80	0.269700	0.518200	0.754400
C811	C81	0.334300	0.507400	0.713300
C821	C82	0.337500	0.433900	0.676900
C831	C83	0.275300	0.375200	0.681500
C841	C84	0.407300	0.425800	0.633200
C851	C85	0.502200	0.373700	0.570700
C861	C86	0.558200	0.311900	0.540600
C871	C87	0.540000	0.281100	0.481600
C881	C88	0.595300	0.221700	0.456200
C891	C89	0.663900	0.191000	0.489200
C901	C90	0.680900	0.220700	0.547800
C911	C91	0.627400	0.281200	0.573300
C921	C92	0.754300	0.190700	0.585300
C931	C93	0.799000	0.118200	0.570400
C941	C94	0.860600	0.089400	0.610700
C951	C95	0.842900	0.200700	0.674300
C961	C96	0.780500	0.233500	0.637800
C971	C97	0.197900	0.068500	0.309600
C981	C98	0.261700	0.125700	0.318900
C991	C99	0.319500	0.140500	0.271200
C1001	C100	0.309700	0.093600	0.218400
C1011	C101	0.242600	0.038000	0.212600
C1021	C102	0.385700	0.207100	0.277800
C1031	C103	0.459200	0.206300	0.240600
C1041	C104	0.518200	0.269700	0.245600
C1051	C105	0.507400	0.334300	0.286700
C1061	C106	0.433900	0.337500	0.323100
C1071	C107	0.375200	0.275300	0.318500
C1081	C108	0.425800	0.407300	0.366800
C1091	C109	0.373700	0.502200	0.429300
C1101	C110	0.311900	0.558200	0.459400
C1111	C111	0.281100	0.540000	0.518400
C1121	C112	0.221700	0.595300	0.543800
C1131	C113	0.191000	0.663900	0.510800
C1141	C114	0.220700	0.680900	0.452200
C1151	C115	0.281200	0.627400	0.426700
C1161	C116	0.190700	0.754300	0.414700
C1171	C117	0.118200	0.799000	0.429600
C1181	C118	0.089400	0.860600	0.389300
C1191	C119	0.200700	0.842900	0.325700
C1201	C120	0.233500	0.780500	0.362200
C1211	C121	0.802100	0.931500	0.809600
C1221	C122	0.738300	0.874300	0.818900
C1231	C123	0.680500	0.859500	0.771200
C1241	C124	0.690300	0.906400	0.718400
C1251	C125	0.757400	0.962000	0.712600
C1261	C126	0.614300	0.792900	0.777800
C1271	C127	0.540800	0.793700	0.740600
C1281	C128	0.481800	0.730300	0.745600
C1291	C129	0.492600	0.665700	0.786700
C1301	C130	0.566100	0.662500	0.823100
C1311	C131	0.624800	0.724700	0.818500
C1321	C132	0.574200	0.592700	0.866800
C1331	C133	0.626300	0.497800	0.929300
C1341	C134	0.688100	0.441800	0.959400
C1351	C135	0.718900	0.460000	0.018400
C1361	C136	0.778300	0.404700	0.043800
C1371	C137	0.809000	0.336100	0.010800
C1381	C138	0.779300	0.319100	0.952200
C1391	C139	0.718800	0.372600	0.926700
C1401	C140	0.809300	0.245700	0.914700
C1411	C141	0.881800	0.201000	0.929600
C1421	C142	0.910600	0.139400	0.889300
C1431	C143	0.799300	0.157100	0.825700
C1441	C144	0.766500	0.219500	0.862200
C1451	C145	0.568500	0.302100	0.059600
C1461	C146	0.625700	0.238300	0.068900
C1471	C147	0.640500	0.180500	0.021200
C1481	C148	0.593600	0.190300	0.968400
C1491	C149	0.538000	0.257400	0.962600
C1501	C150	0.707100	0.114300	0.027800
C1511	C151	0.706300	0.040800	0.990600
C1521	C152	0.769700	0.981800	0.995600
C1531	C153	0.834300	0.992600	0.036700
C1541	C154	0.837500	0.066100	0.073100
C1551	C155	0.775300	0.124800	0.068500
C1561	C156	0.907300	0.074200	0.116800
C1571	C157	0.002200	0.126300	0.179300
C1581	C158	0.058200	0.188100	0.209400
C1591	C159	0.040000	0.218900	0.268400
C1601	C160	0.095300	0.278300	0.293800
C1611	C161	0.163900	0.309000	0.260800
C1621	C162	0.180900	0.279300	0.202200
C1631	C163	0.127400	0.218800	0.176700
C1641	C164	0.254300	0.309300	0.164700
C1651	C165	0.299000	0.381800	0.179600
C1661	C166	0.360600	0.410600	0.139300
C1671	C167	0.342900	0.299300	0.075700
C1681	C168	0.280500	0.266500	0.112200
C1691	C169	0.431500	0.697900	0.559600
C1701	C170	0.374300	0.761700	0.568900
C1711	C171	0.359500	0.819500	0.521200
C1721	C172	0.406400	0.809700	0.468400
C1731	C173	0.462000	0.742600	0.462600
C1741	C174	0.292900	0.885700	0.527800
C1751	C175	0.293700	0.959200	0.490600
C1761	C176	0.230300	0.018200	0.495600
C1771	C177	0.165700	0.007400	0.536700
C1781	C178	0.162500	0.933900	0.573100
C1791	C179	0.224700	0.875200	0.568500
C1801	C180	0.092700	0.925800	0.616800
C1811	C181	0.997800	0.873700	0.679300
C1821	C182	0.941800	0.811900	0.709400
C1831	C183	0.960000	0.781100	0.768400
C1841	C184	0.904700	0.721700	0.793800
C1851	C185	0.836100	0.691000	0.760800
C1861	C186	0.819100	0.720700	0.702200
C1871	C187	0.872600	0.781200	0.676700
C1881	C188	0.745700	0.690700	0.664700
C1891	C189	0.701000	0.618200	0.679600
C1901	C190	0.639400	0.589400	0.639300
C1911	C191	0.657100	0.700700	0.575700
C1921	C192	0.719500	0.733500	0.612200
N11	N1	0.312700	0.524300	0.992600
N21	N2	0.010500	0.944500	0.855700
N31	N3	0.043300	0.004800	0.816600
N41	N4	0.147300	0.943700	0.862200
N51	N5	0.229600	0.923800	0.882900
N61	N6	0.374000	0.380800	0.912700
N71	N7	0.687300	0.475700	0.492600
N81	N8	0.989500	0.055500	0.355700
N91	N9	0.956700	0.995200	0.316600
N101	N10	0.852700	0.056300	0.362200
N111	N11	0.770400	0.076200	0.382900
N121	N12	0.626000	0.619200	0.412700
N131	N13	0.975700	0.812700	0.242600
N141	N14	0.555500	0.510500	0.105700
N151	N15	0.495200	0.543300	0.066600
N161	N16	0.556300	0.647300	0.112200
N171	N17	0.576200	0.729600	0.132900
N181	N18	0.119200	0.874000	0.162700
N191	N19	0.024300	0.187300	0.742600
N201	N20	0.444500	0.489500	0.605700
N211	N21	0.504800	0.456700	0.566600
N221	N22	0.443700	0.352700	0.612200
N231	N23	0.423800	0.270400	0.632900
N241	N24	0.880800	0.126000	0.662700
N251	N25	0.187300	0.024300	0.257400
N261	N26	0.489500	0.444500	0.394300
N271	N27	0.456700	0.504800	0.433400
N281	N28	0.352700	0.443700	0.387800
N291	N29	0.270400	0.423800	0.367100
N301	N30	0.126000	0.880800	0.337300
N311	N31	0.812700	0.975700	0.757400
N321	N32	0.510500	0.555500	0.894300
N331	N33	0.543300	0.495200	0.933400
N341	N34	0.647300	0.556300	0.887800
N351	N35	0.729600	0.576200	0.867100
N361	N36	0.874000	0.119200	0.837300
N371	N37	0.524300	0.312700	0.007400
N381	N38	0.944500	0.010500	0.144300
N391	N39	0.004800	0.043300	0.183400
N401	N40	0.943700	0.147300	0.137800
N411	N41	0.923800	0.229600	0.117100
N421	N42	0.380800	0.374000	0.087300
N431	N43	0.475700	0.687300	0.507400
N441	N44	0.055500	0.989500	0.644300
N451	N45	0.995200	0.956700	0.683400
N461	N46	0.056300	0.852700	0.637800
N471	N47	0.076200	0.770400	0.617100
N481	N48	0.619200	0.626000	0.587300
Cl11	Cl1	0.118840	0.118840	0.000000
O11	O1	0.188700	0.101600	0.031600
O21	O2	0.131000	0.064500	0.954500
O31	O3	0.101600	0.188700	0.968400
O41	O4	0.064500	0.131000	0.045500
Cl21	Cl2	0.881160	0.881160	0.500000
O51	O5	0.811300	0.898400	0.531600
O61	O6	0.869000	0.935500	0.454500
O71	O7	0.898400	0.811300	0.468400
O81	O8	0.935500	0.869000	0.545500
Cl31	Cl3	0.381160	0.618840	0.250000
O91	O9	0.398400	0.688700	0.281600
O101	O10	0.435500	0.631000	0.204500
O111	O11	0.311300	0.601600	0.218400
O121	O12	0.369000	0.564500	0.295500
Cl41	Cl4	0.618840	0.381160	0.750000
O131	O13	0.601600	0.311300	0.781600
O141	O14	0.564500	0.369000	0.704500
O151	O15	0.688700	0.398400	0.718400
O161	O16	0.631000	0.435500	0.795500
