data_WUNSII_charged_PM
_symmetry_space_group_name_H-M	'P1'
_cell_length_a	15.916000
_cell_length_b	15.916000
_cell_length_c	21.495000
_cell_angle_alpha	90.000000
_cell_angle_beta	90.000000
_cell_angle_gamma	90.000000
_symmetry_Int_Tables_number 1

loop_
_symmetry_equiv_pos_as_xyz
'x,y,z'

loop_
_atom_site_label
_atom_site_type_symbol
_atom_site_fract_x
_atom_site_fract_y
_atom_site_fract_z
Cd11	Cd1	0.059080	0.940920	0.750000
Cd21	Cd2	0.940920	0.059080	0.250000
Cd31	Cd3	0.559080	0.559080	0.500000
Cd41	Cd4	0.440920	0.440920	0.000000
H11	H1	0.742100	0.497100	0.428700
H21	H2	0.850000	0.401100	0.438100
H31	H3	0.761600	0.342200	0.607600
H41	H4	0.655000	0.439100	0.591900
H51	H5	0.964400	0.336200	0.462600
H61	H6	0.066200	0.231700	0.474400
H71	H7	0.045300	0.120700	0.542100
H81	H8	0.822900	0.221900	0.595200
H91	H9	0.797400	0.006600	0.792600
H101	H10	0.698600	0.912300	0.837200
H111	H11	0.645800	0.800900	0.781000
H121	H12	0.804900	0.858600	0.639600
H131	H13	0.584100	0.716100	0.716400
H141	H14	0.535200	0.613300	0.649700
H151	H15	0.730500	0.638300	0.541100
H161	H16	0.787500	0.739600	0.604800
H171	H17	0.737800	0.092200	0.651700
H181	H18	0.745300	0.027500	0.602200
H191	H19	0.257900	0.502900	0.928700
H201	H20	0.150000	0.598900	0.938100
H211	H21	0.238400	0.657800	0.107600
H221	H22	0.345000	0.560900	0.091900
H231	H23	0.035600	0.663800	0.962600
H241	H24	0.933800	0.768300	0.974400
H251	H25	0.954700	0.879300	0.042100
H261	H26	0.177100	0.778100	0.095200
H271	H27	0.202600	0.993400	0.292600
H281	H28	0.301400	0.087700	0.337200
H291	H29	0.354200	0.199100	0.281000
H301	H30	0.195100	0.141400	0.139600
H311	H31	0.415900	0.283900	0.216400
H321	H32	0.464800	0.386700	0.149700
H331	H33	0.269500	0.361700	0.041100
H341	H34	0.212500	0.260400	0.104800
H351	H35	0.262200	0.907800	0.151700
H361	H36	0.254700	0.972500	0.102200
H371	H37	0.002900	0.242100	0.178700
H381	H38	0.098900	0.350000	0.188100
H391	H39	0.157800	0.261600	0.357600
H401	H40	0.060900	0.155000	0.341900
H411	H41	0.163800	0.464400	0.212600
H421	H42	0.268300	0.566200	0.224400
H431	H43	0.379300	0.545300	0.292100
H441	H44	0.278100	0.322900	0.345200
H451	H45	0.493400	0.297400	0.542600
H461	H46	0.587700	0.198600	0.587200
H471	H47	0.699100	0.145800	0.531000
H481	H48	0.641400	0.304900	0.389600
H491	H49	0.783900	0.084100	0.466400
H501	H50	0.886700	0.035200	0.399700
H511	H51	0.861700	0.230500	0.291100
H521	H52	0.760400	0.287500	0.354800
H531	H53	0.407800	0.237800	0.401700
H541	H54	0.472500	0.245300	0.352200
H551	H55	0.997100	0.757900	0.678700
H561	H56	0.901100	0.650000	0.688100
H571	H57	0.842200	0.738400	0.857600
H581	H58	0.939100	0.845000	0.841900
H591	H59	0.836200	0.535600	0.712600
H601	H60	0.731700	0.433800	0.724400
H611	H61	0.620700	0.454700	0.792100
H621	H62	0.721900	0.677100	0.845200
H631	H63	0.506600	0.702600	0.042600
H641	H64	0.412300	0.801400	0.087200
H651	H65	0.300900	0.854200	0.031000
H661	H66	0.358600	0.695100	0.889600
H671	H67	0.216100	0.915900	0.966400
H681	H68	0.113300	0.964800	0.899700
H691	H69	0.138300	0.769500	0.791100
H701	H70	0.239600	0.712500	0.854800
H711	H71	0.592200	0.762200	0.901700
H721	H72	0.527500	0.754700	0.852200
H731	H73	0.757900	0.997100	0.321300
H741	H74	0.650000	0.901100	0.311900
H751	H75	0.738400	0.842200	0.142400
H761	H76	0.845000	0.939100	0.158100
H771	H77	0.535600	0.836200	0.287400
H781	H78	0.433800	0.731700	0.275600
H791	H79	0.454700	0.620700	0.207900
H801	H80	0.677100	0.721900	0.154800
H811	H81	0.702600	0.506600	0.957400
H821	H82	0.801400	0.412300	0.912800
H831	H83	0.854200	0.300900	0.969000
H841	H84	0.695100	0.358600	0.110400
H851	H85	0.915900	0.216100	0.033600
H861	H86	0.964800	0.113300	0.100300
H871	H87	0.769500	0.138300	0.208900
H881	H88	0.712500	0.239600	0.145200
H891	H89	0.762200	0.592200	0.098300
H901	H90	0.754700	0.527500	0.147800
H911	H91	0.242100	0.002900	0.821300
H921	H92	0.350000	0.098900	0.811900
H931	H93	0.261600	0.157800	0.642400
H941	H94	0.155000	0.060900	0.658100
H951	H95	0.464400	0.163800	0.787400
H961	H96	0.566200	0.268300	0.775600
H971	H97	0.545300	0.379300	0.707900
H981	H98	0.322900	0.278100	0.654800
H991	H99	0.297400	0.493400	0.457400
H1001	H100	0.198600	0.587700	0.412800
H1011	H101	0.145800	0.699100	0.469000
H1021	H102	0.304900	0.641400	0.610400
H1031	H103	0.084100	0.783900	0.533600
H1041	H104	0.035200	0.886700	0.600300
H1051	H105	0.230500	0.861700	0.708900
H1061	H106	0.287500	0.760400	0.645200
H1071	H107	0.237800	0.407800	0.598300
H1081	H108	0.245300	0.472500	0.647800
H1091	H109	0.497100	0.742100	0.571300
H1101	H110	0.401100	0.850000	0.561900
H1111	H111	0.342200	0.761600	0.392400
H1121	H112	0.439100	0.655000	0.408100
H1131	H113	0.336200	0.964400	0.537400
H1141	H114	0.231700	0.066200	0.525600
H1151	H115	0.120700	0.045300	0.457900
H1161	H116	0.221900	0.822900	0.404800
H1171	H117	0.006600	0.797400	0.207400
H1181	H118	0.912300	0.698600	0.162800
H1191	H119	0.800900	0.645800	0.219000
H1201	H120	0.858600	0.804900	0.360400
H1211	H121	0.716100	0.584100	0.283600
H1221	H122	0.613300	0.535200	0.350300
H1231	H123	0.638300	0.730500	0.458900
H1241	H124	0.739600	0.787500	0.395200
H1251	H125	0.092200	0.737800	0.348300
H1261	H126	0.027500	0.745300	0.397800
H1271	H127	0.502900	0.257900	0.071300
H1281	H128	0.598900	0.150000	0.061900
H1291	H129	0.657800	0.238400	0.892400
H1301	H130	0.560900	0.345000	0.908100
H1311	H131	0.663800	0.035600	0.037400
H1321	H132	0.768300	0.933800	0.025600
H1331	H133	0.879300	0.954700	0.957900
H1341	H134	0.778100	0.177100	0.904800
H1351	H135	0.993400	0.202600	0.707400
H1361	H136	0.087700	0.301400	0.662800
H1371	H137	0.199100	0.354200	0.719000
H1381	H138	0.141400	0.195100	0.860400
H1391	H139	0.283900	0.415900	0.783600
H1401	H140	0.386700	0.464800	0.850300
H1411	H141	0.361700	0.269500	0.958900
H1421	H142	0.260400	0.212500	0.895200
H1431	H143	0.907800	0.262200	0.848300
H1441	H144	0.972500	0.254700	0.897800
C11	C1	0.744900	0.463800	0.465300
C21	C2	0.810000	0.406400	0.470700
C31	C3	0.816800	0.357200	0.523000
C41	C4	0.758400	0.371900	0.569300
C51	C5	0.694900	0.430500	0.559600
C61	C6	0.882300	0.291400	0.529000
C71	C7	0.956000	0.292400	0.491900
C81	C8	0.016100	0.229200	0.498300
C91	C9	0.004100	0.163600	0.538600
C101	C10	0.930800	0.160100	0.574600
C111	C11	0.871800	0.224000	0.569900
C121	C12	0.923300	0.091300	0.618300
C131	C13	0.872200	0.994900	0.680600
C141	C14	0.810100	0.940900	0.711400
C151	C15	0.778900	0.958500	0.770200
C161	C16	0.718400	0.902600	0.796200
C171	C17	0.688300	0.835500	0.763600
C181	C18	0.720700	0.817900	0.703900
C191	C19	0.781900	0.870800	0.679300
C201	C20	0.690300	0.745200	0.666600
C211	C21	0.615000	0.702800	0.679900
C221	C22	0.585900	0.641400	0.639300
C231	C23	0.699500	0.655800	0.576600
C241	C24	0.733900	0.716800	0.614400
C251	C25	0.255100	0.536200	0.965300
C261	C26	0.190000	0.593600	0.970700
C271	C27	0.183200	0.642800	0.023000
C281	C28	0.241600	0.628100	0.069300
C291	C29	0.305100	0.569500	0.059600
C301	C30	0.117700	0.708600	0.029000
C311	C31	0.044000	0.707600	0.991900
C321	C32	0.983900	0.770800	0.998300
C331	C33	0.995900	0.836400	0.038600
C341	C34	0.069200	0.839900	0.074600
C351	C35	0.128200	0.776000	0.069900
C361	C36	0.076700	0.908700	0.118300
C371	C37	0.127800	0.005100	0.180600
C381	C38	0.189900	0.059100	0.211400
C391	C39	0.221100	0.041500	0.270200
C401	C40	0.281600	0.097400	0.296200
C411	C41	0.311700	0.164500	0.263600
C421	C42	0.279300	0.182100	0.203900
C431	C43	0.218100	0.129200	0.179300
C441	C44	0.309700	0.254800	0.166600
C451	C45	0.385000	0.297200	0.179900
C461	C46	0.414100	0.358600	0.139300
C471	C47	0.300500	0.344200	0.076600
C481	C48	0.266100	0.283200	0.114400
C491	C49	0.036200	0.244900	0.215300
C501	C50	0.093600	0.310000	0.220700
C511	C51	0.142800	0.316800	0.273000
C521	C52	0.128100	0.258400	0.319300
C531	C53	0.069500	0.194900	0.309600
C541	C54	0.208600	0.382300	0.279000
C551	C55	0.207600	0.456000	0.241900
C561	C56	0.270800	0.516100	0.248300
C571	C57	0.336400	0.504100	0.288600
C581	C58	0.339900	0.430800	0.324600
C591	C59	0.276000	0.371800	0.319900
C601	C60	0.408700	0.423300	0.368300
C611	C61	0.505100	0.372200	0.430600
C621	C62	0.559100	0.310100	0.461400
C631	C63	0.541500	0.278900	0.520200
C641	C64	0.597400	0.218400	0.546200
C651	C65	0.664500	0.188300	0.513600
C661	C66	0.682100	0.220700	0.453900
C671	C67	0.629200	0.281900	0.429300
C681	C68	0.754800	0.190300	0.416600
C691	C69	0.797200	0.115000	0.429900
C701	C70	0.858600	0.085900	0.389300
C711	C71	0.844200	0.199500	0.326600
C721	C72	0.783200	0.233900	0.364400
C731	C73	0.963800	0.755100	0.715300
C741	C74	0.906400	0.690000	0.720700
C751	C75	0.857200	0.683200	0.773000
C761	C76	0.871900	0.741600	0.819300
C771	C77	0.930500	0.805100	0.809600
C781	C78	0.791400	0.617700	0.779000
C791	C79	0.792400	0.544000	0.741900
C801	C80	0.729200	0.483900	0.748300
C811	C81	0.663600	0.495900	0.788600
C821	C82	0.660100	0.569200	0.824600
C831	C83	0.724000	0.628200	0.819900
C841	C84	0.591300	0.576700	0.868300
C851	C85	0.494900	0.627800	0.930600
C861	C86	0.440900	0.689900	0.961400
C871	C87	0.458500	0.721100	0.020200
C881	C88	0.402600	0.781600	0.046200
C891	C89	0.335500	0.811700	0.013600
C901	C90	0.317900	0.779300	0.953900
C911	C91	0.370800	0.718100	0.929300
C921	C92	0.245200	0.809700	0.916600
C931	C93	0.202800	0.885000	0.929900
C941	C94	0.141400	0.914100	0.889300
C951	C95	0.155800	0.800500	0.826600
C961	C96	0.216800	0.766100	0.864400
C971	C97	0.755100	0.963800	0.284700
C981	C98	0.690000	0.906400	0.279300
C991	C99	0.683200	0.857200	0.227000
C1001	C100	0.741600	0.871900	0.180700
C1011	C101	0.805100	0.930500	0.190400
C1021	C102	0.617700	0.791400	0.221000
C1031	C103	0.544000	0.792400	0.258100
C1041	C104	0.483900	0.729200	0.251700
C1051	C105	0.495900	0.663600	0.211400
C1061	C106	0.569200	0.660100	0.175400
C1071	C107	0.628200	0.724000	0.180100
C1081	C108	0.576700	0.591300	0.131700
C1091	C109	0.627800	0.494900	0.069400
C1101	C110	0.689900	0.440900	0.038600
C1111	C111	0.721100	0.458500	0.979800
C1121	C112	0.781600	0.402600	0.953800
C1131	C113	0.811700	0.335500	0.986400
C1141	C114	0.779300	0.317900	0.046100
C1151	C115	0.718100	0.370800	0.070700
C1161	C116	0.809700	0.245200	0.083400
C1171	C117	0.885000	0.202800	0.070100
C1181	C118	0.914100	0.141400	0.110700
C1191	C119	0.800500	0.155800	0.173400
C1201	C120	0.766100	0.216800	0.135600
C1211	C121	0.244900	0.036200	0.784700
C1221	C122	0.310000	0.093600	0.779300
C1231	C123	0.316800	0.142800	0.727000
C1241	C124	0.258400	0.128100	0.680700
C1251	C125	0.194900	0.069500	0.690400
C1261	C126	0.382300	0.208600	0.721000
C1271	C127	0.456000	0.207600	0.758100
C1281	C128	0.516100	0.270800	0.751700
C1291	C129	0.504100	0.336400	0.711400
C1301	C130	0.430800	0.339900	0.675400
C1311	C131	0.371800	0.276000	0.680100
C1321	C132	0.423300	0.408700	0.631700
C1331	C133	0.372200	0.505100	0.569400
C1341	C134	0.310100	0.559100	0.538600
C1351	C135	0.278900	0.541500	0.479800
C1361	C136	0.218400	0.597400	0.453800
C1371	C137	0.188300	0.664500	0.486400
C1381	C138	0.220700	0.682100	0.546100
C1391	C139	0.281900	0.629200	0.570700
C1401	C140	0.190300	0.754800	0.583400
C1411	C141	0.115000	0.797200	0.570100
C1421	C142	0.085900	0.858600	0.610700
C1431	C143	0.199500	0.844200	0.673400
C1441	C144	0.233900	0.783200	0.635600
C1451	C145	0.463800	0.744900	0.534700
C1461	C146	0.406400	0.810000	0.529300
C1471	C147	0.357200	0.816800	0.477000
C1481	C148	0.371900	0.758400	0.430700
C1491	C149	0.430500	0.694900	0.440400
C1501	C150	0.291400	0.882300	0.471000
C1511	C151	0.292400	0.956000	0.508100
C1521	C152	0.229200	0.016100	0.501700
C1531	C153	0.163600	0.004100	0.461400
C1541	C154	0.160100	0.930800	0.425400
C1551	C155	0.224000	0.871800	0.430100
C1561	C156	0.091300	0.923300	0.381700
C1571	C157	0.994900	0.872200	0.319400
C1581	C158	0.940900	0.810100	0.288600
C1591	C159	0.958500	0.778900	0.229800
C1601	C160	0.902600	0.718400	0.203800
C1611	C161	0.835500	0.688300	0.236400
C1621	C162	0.817900	0.720700	0.296100
C1631	C163	0.870800	0.781900	0.320700
C1641	C164	0.745200	0.690300	0.333400
C1651	C165	0.702800	0.615000	0.320100
C1661	C166	0.641400	0.585900	0.360700
C1671	C167	0.655800	0.699500	0.423400
C1681	C168	0.716800	0.733900	0.385600
C1691	C169	0.536200	0.255100	0.034700
C1701	C170	0.593600	0.190000	0.029300
C1711	C171	0.642800	0.183200	0.977000
C1721	C172	0.628100	0.241600	0.930700
C1731	C173	0.569500	0.305100	0.940400
C1741	C174	0.708600	0.117700	0.971000
C1751	C175	0.707600	0.044000	0.008100
C1761	C176	0.770800	0.983900	0.001700
C1771	C177	0.836400	0.995900	0.961400
C1781	C178	0.839900	0.069200	0.925400
C1791	C179	0.776000	0.128200	0.930100
C1801	C180	0.908700	0.076700	0.881700
C1811	C181	0.005100	0.127800	0.819400
C1821	C182	0.059100	0.189900	0.788600
C1831	C183	0.041500	0.221100	0.729800
C1841	C184	0.097400	0.281600	0.703800
C1851	C185	0.164500	0.311700	0.736400
C1861	C186	0.182100	0.279300	0.796100
C1871	C187	0.129200	0.218100	0.820700
C1881	C188	0.254800	0.309700	0.833400
C1891	C189	0.297200	0.385000	0.820100
C1901	C190	0.358600	0.414100	0.860700
C1911	C191	0.344200	0.300500	0.923400
C1921	C192	0.283200	0.266100	0.885600
N11	N1	0.987000	0.054100	0.644800
N21	N2	0.955100	0.992500	0.683800
N31	N3	0.850200	0.055300	0.639900
N41	N4	0.769200	0.074300	0.618900
N51	N5	0.624000	0.619700	0.587500
N61	N6	0.686800	0.474800	0.508200
N71	N7	0.013000	0.945900	0.144800
N81	N8	0.044900	0.007500	0.183800
N91	N9	0.149800	0.944700	0.139900
N101	N10	0.230800	0.925700	0.118900
N111	N11	0.376000	0.380300	0.087500
N121	N12	0.313200	0.525200	0.008200
N131	N13	0.445900	0.487000	0.394800
N141	N14	0.507500	0.455100	0.433800
N151	N15	0.444700	0.350200	0.389900
N161	N16	0.425700	0.269200	0.368900
N171	N17	0.880300	0.124000	0.337500
N181	N18	0.025200	0.186800	0.258200
N191	N19	0.554100	0.513000	0.894800
N201	N20	0.492500	0.544900	0.933800
N211	N21	0.555300	0.649800	0.889900
N221	N22	0.574300	0.730800	0.868900
N231	N23	0.119700	0.876000	0.837500
N241	N24	0.974800	0.813200	0.758200
N251	N25	0.513000	0.554100	0.105200
N261	N26	0.544900	0.492500	0.066200
N271	N27	0.649800	0.555300	0.110100
N281	N28	0.730800	0.574300	0.131100
N291	N29	0.876000	0.119700	0.162500
N301	N30	0.813200	0.974800	0.241800
N311	N31	0.487000	0.445900	0.605200
N321	N32	0.455100	0.507500	0.566200
N331	N33	0.350200	0.444700	0.610100
N341	N34	0.269200	0.425700	0.631100
N351	N35	0.124000	0.880300	0.662500
N361	N36	0.186800	0.025200	0.741800
N371	N37	0.054100	0.987000	0.355200
N381	N38	0.992500	0.955100	0.316200
N391	N39	0.055300	0.850200	0.360100
N401	N40	0.074300	0.769200	0.381100
N411	N41	0.619700	0.624000	0.412500
N421	N42	0.474800	0.686800	0.491800
N431	N43	0.945900	0.013000	0.855200
N441	N44	0.007500	0.044900	0.816200
N451	N45	0.944700	0.149800	0.860100
N461	N46	0.925700	0.230800	0.881100
N471	N47	0.380300	0.376000	0.912500
N481	N48	0.525200	0.313200	0.991800
Cl11	Cl1	0.732200	0.732200	0.000000
O11	O1	0.778700	0.655000	0.980100
O21	O2	0.775600	0.754900	0.052500
O31	O3	0.655000	0.778700	0.019900
O41	O4	0.754900	0.775600	0.947500
Cl21	Cl2	0.122640	0.122640	0.000000
O51	O5	0.097800	0.179400	0.051100
O61	O6	0.107100	0.045800	0.026400
O71	O7	0.179400	0.097800	0.948900
O81	O8	0.045800	0.107100	0.973600
Cl31	Cl3	0.267800	0.267800	0.500000
O91	O9	0.221300	0.345000	0.480100
O101	O10	0.224400	0.245100	0.552500
O111	O11	0.345000	0.221300	0.519900
O121	O12	0.245100	0.224400	0.447500
Cl41	Cl4	0.877360	0.877360	0.500000
O131	O13	0.902200	0.820600	0.551100
O141	O14	0.892900	0.954200	0.526400
O151	O15	0.820600	0.902200	0.448900
O161	O16	0.954200	0.892900	0.473600
Cl51	Cl5	0.767800	0.232200	0.750000
O171	O17	0.845000	0.278700	0.730100
O181	O18	0.745100	0.275600	0.802500
O191	O19	0.721300	0.155000	0.769900
O201	O20	0.724400	0.254900	0.697500
Cl61	Cl6	0.377360	0.622640	0.750000
O211	O21	0.320600	0.597800	0.801100
O221	O22	0.454200	0.607100	0.776400
O231	O23	0.402200	0.679400	0.698900
O241	O24	0.392900	0.545800	0.723600
Cl71	Cl7	0.232200	0.767800	0.250000
O251	O25	0.155000	0.721300	0.230100
O261	O26	0.254900	0.724400	0.302500
O271	O27	0.278700	0.845000	0.269900
O281	O28	0.275600	0.745100	0.197500
Cl81	Cl8	0.622640	0.377360	0.250000
O291	O29	0.679400	0.402200	0.301100
O301	O30	0.545800	0.392900	0.276400
O311	O31	0.597800	0.320600	0.198900
O321	O32	0.607100	0.454200	0.223600
