data_WUNSEE02_charged_PM
_symmetry_space_group_name_H-M	'P1'
_cell_length_a	15.817800
_cell_length_b	15.817800
_cell_length_c	21.503000
_cell_angle_alpha	90.000000
_cell_angle_beta	90.000000
_cell_angle_gamma	90.000000
_symmetry_Int_Tables_number 1

loop_
_symmetry_equiv_pos_as_xyz
'x,y,z'

loop_
_atom_site_label
_atom_site_type_symbol
_atom_site_fract_x
_atom_site_fract_y
_atom_site_fract_z
Cd11	Cd1	0.059660	0.940340	0.750000
Cd21	Cd2	0.940340	0.059660	0.250000
Cd31	Cd3	0.559660	0.559660	0.000000
Cd41	Cd4	0.440340	0.440340	0.500000
H11	H1	0.240500	0.003800	0.675200
H21	H2	0.350400	0.096100	0.682700
H31	H3	0.265700	0.154400	0.855900
H41	H4	0.159200	0.060300	0.841400
H51	H5	0.470100	0.159500	0.711600
H61	H6	0.571500	0.261700	0.723100
H71	H7	0.551400	0.375900	0.790200
H81	H8	0.328400	0.274100	0.844100
H91	H9	0.298400	0.489100	0.042500
H101	H10	0.195600	0.579600	0.082800
H111	H11	0.152200	0.698800	0.032500
H121	H12	0.304900	0.639400	0.887900
H131	H13	0.089700	0.784900	0.967900
H141	H14	0.040800	0.890900	0.902900
H151	H15	0.231800	0.860800	0.790300
H161	H16	0.291400	0.759000	0.855000
H171	H17	0.233900	0.462000	0.861300
H181	H18	0.253100	0.394000	0.901000
H191	H19	0.759500	0.996200	0.175200
H201	H20	0.649600	0.903900	0.182700
H211	H21	0.734300	0.845600	0.355900
H221	H22	0.840800	0.939700	0.341400
H231	H23	0.529900	0.840500	0.211600
H241	H24	0.428500	0.738300	0.223100
H251	H25	0.448600	0.624100	0.290200
H261	H26	0.671600	0.725900	0.344100
H271	H27	0.701600	0.510900	0.542500
H281	H28	0.804400	0.420400	0.582800
H291	H29	0.847800	0.301200	0.532500
H301	H30	0.695100	0.360600	0.387900
H311	H31	0.910300	0.215100	0.467900
H321	H32	0.959200	0.109100	0.402900
H331	H33	0.768200	0.139200	0.290300
H341	H34	0.708600	0.241000	0.355000
H351	H35	0.766100	0.538000	0.361300
H361	H36	0.746900	0.606000	0.401000
H371	H37	0.496200	0.740500	0.925200
H381	H38	0.403900	0.850400	0.932700
H391	H39	0.345600	0.765700	0.105900
H401	H40	0.439700	0.659200	0.091400
H411	H41	0.340500	0.970100	0.961600
H421	H42	0.238300	0.071500	0.973100
H431	H43	0.124100	0.051400	0.040200
H441	H44	0.225900	0.828400	0.094100
H451	H45	0.010900	0.798400	0.292500
H461	H46	0.920400	0.695600	0.332800
H471	H47	0.801200	0.652200	0.282500
H481	H48	0.860600	0.804900	0.137900
H491	H49	0.715100	0.589700	0.217900
H501	H50	0.609100	0.540800	0.152900
H511	H51	0.639200	0.731800	0.040300
H521	H52	0.741000	0.791400	0.105000
H531	H53	0.038000	0.733900	0.111300
H541	H54	0.106000	0.753100	0.151000
H551	H55	0.503800	0.259500	0.425200
H561	H56	0.596100	0.149600	0.432700
H571	H57	0.654400	0.234300	0.605900
H581	H58	0.560300	0.340800	0.591400
H591	H59	0.659500	0.029900	0.461600
H601	H60	0.761700	0.928500	0.473100
H611	H61	0.875900	0.948600	0.540200
H621	H62	0.774100	0.171600	0.594100
H631	H63	0.989100	0.201600	0.792500
H641	H64	0.079600	0.304400	0.832800
H651	H65	0.198800	0.347800	0.782500
H661	H66	0.139400	0.195100	0.637900
H671	H67	0.284900	0.410300	0.717900
H681	H68	0.390900	0.459200	0.652900
H691	H69	0.360800	0.268200	0.540300
H701	H70	0.259000	0.208600	0.605000
H711	H71	0.962000	0.266100	0.611300
H721	H72	0.894000	0.246900	0.651000
H731	H73	0.259500	0.503800	0.574800
H741	H74	0.149600	0.596100	0.567300
H751	H75	0.234300	0.654400	0.394100
H761	H76	0.340800	0.560300	0.408600
H771	H77	0.029900	0.659500	0.538400
H781	H78	0.928500	0.761700	0.526900
H791	H79	0.948600	0.875900	0.459800
H801	H80	0.171600	0.774100	0.405900
H811	H81	0.201600	0.989100	0.207500
H821	H82	0.304400	0.079600	0.167200
H831	H83	0.347800	0.198800	0.217500
H841	H84	0.195100	0.139400	0.362100
H851	H85	0.410300	0.284900	0.282100
H861	H86	0.459200	0.390900	0.347100
H871	H87	0.268200	0.360800	0.459700
H881	H88	0.208600	0.259000	0.395000
H891	H89	0.266100	0.962000	0.388700
H901	H90	0.246900	0.894000	0.349000
H911	H91	0.740500	0.496200	0.074800
H921	H92	0.850400	0.403900	0.067300
H931	H93	0.765700	0.345600	0.894100
H941	H94	0.659200	0.439700	0.908600
H951	H95	0.970100	0.340500	0.038400
H961	H96	0.071500	0.238300	0.026900
H971	H97	0.051400	0.124100	0.959800
H981	H98	0.828400	0.225900	0.905900
H991	H99	0.798400	0.010900	0.707500
H1001	H100	0.695600	0.920400	0.667200
H1011	H101	0.652200	0.801200	0.717500
H1021	H102	0.804900	0.860600	0.862100
H1031	H103	0.589700	0.715100	0.782100
H1041	H104	0.540800	0.609100	0.847100
H1051	H105	0.731800	0.639200	0.959700
H1061	H106	0.791400	0.741000	0.895000
H1071	H107	0.733900	0.038000	0.888700
H1081	H108	0.753100	0.106000	0.849000
H1091	H109	0.003800	0.240500	0.324800
H1101	H110	0.096100	0.350400	0.317300
H1111	H111	0.154400	0.265700	0.144100
H1121	H112	0.060300	0.159200	0.158600
H1131	H113	0.159500	0.470100	0.288400
H1141	H114	0.261700	0.571500	0.276900
H1151	H115	0.375900	0.551400	0.209800
H1161	H116	0.274100	0.328400	0.155900
H1171	H117	0.489100	0.298400	0.957500
H1181	H118	0.579600	0.195600	0.917200
H1191	H119	0.698800	0.152200	0.967500
H1201	H120	0.639400	0.304900	0.112100
H1211	H121	0.784900	0.089700	0.032100
H1221	H122	0.890900	0.040800	0.097100
H1231	H123	0.860800	0.231800	0.209700
H1241	H124	0.759000	0.291400	0.145000
H1251	H125	0.462000	0.233900	0.138700
H1261	H126	0.394000	0.253100	0.099000
H1271	H127	0.996200	0.759500	0.824800
H1281	H128	0.903900	0.649600	0.817300
H1291	H129	0.845600	0.734300	0.644100
H1301	H130	0.939700	0.840800	0.658600
H1311	H131	0.840500	0.529900	0.788400
H1321	H132	0.738300	0.428500	0.776900
H1331	H133	0.624100	0.448600	0.709800
H1341	H134	0.725900	0.671600	0.655900
H1351	H135	0.510900	0.701600	0.457500
H1361	H136	0.420400	0.804400	0.417200
H1371	H137	0.301200	0.847800	0.467500
H1381	H138	0.360600	0.695100	0.612100
H1391	H139	0.215100	0.910300	0.532100
H1401	H140	0.109100	0.959200	0.597100
H1411	H141	0.139200	0.768200	0.709700
H1421	H142	0.241000	0.708600	0.645000
H1431	H143	0.538000	0.766100	0.638700
H1441	H144	0.606000	0.746900	0.599000
C11	C1	0.245700	0.035800	0.712400
C21	C2	0.311700	0.090700	0.716200
C31	C3	0.321900	0.139800	0.771000
C41	C4	0.261900	0.124700	0.817500
C51	C5	0.198600	0.068400	0.808600
C61	C6	0.388100	0.205300	0.776100
C71	C7	0.461400	0.204000	0.740700
C81	C8	0.521100	0.265200	0.746900
C91	C9	0.509900	0.332700	0.787100
C101	C10	0.436400	0.335900	0.823100
C111	C11	0.377200	0.272600	0.818400
C121	C12	0.427300	0.406300	0.867200
C131	C13	0.375700	0.501800	0.930300
C141	C14	0.312800	0.556500	0.961000
C151	C15	0.280100	0.537300	0.019800
C161	C16	0.219500	0.592200	0.043300
C171	C17	0.192500	0.662600	0.013500
C181	C18	0.224500	0.681600	0.954100
C191	C19	0.283600	0.628000	0.928300
C201	C20	0.192600	0.754100	0.917600
C211	C21	0.120100	0.797700	0.930900
C221	C22	0.090100	0.860500	0.891200
C231	C23	0.201600	0.843700	0.826300
C241	C24	0.237500	0.782000	0.864500
C251	C25	0.754300	0.964200	0.212400
C261	C26	0.688300	0.909300	0.216200
C271	C27	0.678100	0.860200	0.271000
C281	C28	0.738100	0.875300	0.317500
C291	C29	0.801400	0.931600	0.308600
C301	C30	0.611900	0.794700	0.276100
C311	C31	0.538600	0.796000	0.240700
C321	C32	0.478900	0.734800	0.246900
C331	C33	0.490100	0.667300	0.287100
C341	C34	0.563600	0.664100	0.323100
C351	C35	0.622800	0.727400	0.318400
C361	C36	0.572700	0.593700	0.367200
C371	C37	0.624300	0.498200	0.430300
C381	C38	0.687200	0.443500	0.461000
C391	C39	0.719900	0.462700	0.519800
C401	C40	0.780500	0.407800	0.543300
C411	C41	0.807500	0.337400	0.513500
C421	C42	0.775500	0.318400	0.454100
C431	C43	0.716400	0.372000	0.428300
C441	C44	0.807400	0.245900	0.417600
C451	C45	0.879900	0.202300	0.430900
C461	C46	0.909900	0.139500	0.391200
C471	C47	0.798400	0.156300	0.326300
C481	C48	0.762500	0.218000	0.364500
C491	C49	0.464200	0.745700	0.962400
C501	C50	0.409300	0.811700	0.966200
C511	C51	0.360200	0.821900	0.021000
C521	C52	0.375300	0.761900	0.067500
C531	C53	0.431600	0.698600	0.058600
C541	C54	0.294700	0.888100	0.026100
C551	C55	0.296000	0.961400	0.990700
C561	C56	0.234800	0.021100	0.996900
C571	C57	0.167300	0.009900	0.037100
C581	C58	0.164100	0.936400	0.073100
C591	C59	0.227400	0.877200	0.068400
C601	C60	0.093700	0.927300	0.117200
C611	C61	0.998200	0.875700	0.180300
C621	C62	0.943500	0.812800	0.211000
C631	C63	0.962700	0.780100	0.269800
C641	C64	0.907800	0.719500	0.293300
C651	C65	0.837400	0.692500	0.263500
C661	C66	0.818400	0.724500	0.204100
C671	C67	0.872000	0.783600	0.178300
C681	C68	0.745900	0.692600	0.167600
C691	C69	0.702300	0.620100	0.180900
C701	C70	0.639500	0.590100	0.141200
C711	C71	0.656300	0.701600	0.076300
C721	C72	0.718000	0.737500	0.114500
C731	C73	0.535800	0.254300	0.462400
C741	C74	0.590700	0.188300	0.466200
C751	C75	0.639800	0.178100	0.521000
C761	C76	0.624700	0.238100	0.567500
C771	C77	0.568400	0.301400	0.558600
C781	C78	0.705300	0.111900	0.526100
C791	C79	0.704000	0.038600	0.490700
C801	C80	0.765200	0.978900	0.496900
C811	C81	0.832700	0.990100	0.537100
C821	C82	0.835900	0.063600	0.573100
C831	C83	0.772600	0.122800	0.568400
C841	C84	0.906300	0.072700	0.617200
C851	C85	0.001800	0.124300	0.680300
C861	C86	0.056500	0.187200	0.711000
C871	C87	0.037300	0.219900	0.769800
C881	C88	0.092200	0.280500	0.793300
C891	C89	0.162600	0.307500	0.763500
C901	C90	0.181600	0.275500	0.704100
C911	C91	0.128000	0.216400	0.678300
C921	C92	0.254100	0.307400	0.667600
C931	C93	0.297700	0.379900	0.680900
C941	C94	0.360500	0.409900	0.641200
C951	C95	0.343700	0.298400	0.576300
C961	C96	0.282000	0.262500	0.614500
C971	C97	0.254300	0.535800	0.537600
C981	C98	0.188300	0.590700	0.533800
C991	C99	0.178100	0.639800	0.479000
C1001	C100	0.238100	0.624700	0.432500
C1011	C101	0.301400	0.568400	0.441400
C1021	C102	0.111900	0.705300	0.473900
C1031	C103	0.038600	0.704000	0.509300
C1041	C104	0.978900	0.765200	0.503100
C1051	C105	0.990100	0.832700	0.462900
C1061	C106	0.063600	0.835900	0.426900
C1071	C107	0.122800	0.772600	0.431600
C1081	C108	0.072700	0.906300	0.382800
C1091	C109	0.124300	0.001800	0.319700
C1101	C110	0.187200	0.056500	0.289000
C1111	C111	0.219900	0.037300	0.230200
C1121	C112	0.280500	0.092200	0.206700
C1131	C113	0.307500	0.162600	0.236500
C1141	C114	0.275500	0.181600	0.295900
C1151	C115	0.216400	0.128000	0.321700
C1161	C116	0.307400	0.254100	0.332400
C1171	C117	0.379900	0.297700	0.319100
C1181	C118	0.409900	0.360500	0.358800
C1191	C119	0.298400	0.343700	0.423700
C1201	C120	0.262500	0.282000	0.385500
C1211	C121	0.745700	0.464200	0.037600
C1221	C122	0.811700	0.409300	0.033800
C1231	C123	0.821900	0.360200	0.979000
C1241	C124	0.761900	0.375300	0.932500
C1251	C125	0.698600	0.431600	0.941400
C1261	C126	0.888100	0.294700	0.973900
C1271	C127	0.961400	0.296000	0.009300
C1281	C128	0.021100	0.234800	0.003100
C1291	C129	0.009900	0.167300	0.962900
C1301	C130	0.936400	0.164100	0.926900
C1311	C131	0.877200	0.227400	0.931600
C1321	C132	0.927300	0.093700	0.882800
C1331	C133	0.875700	0.998200	0.819700
C1341	C134	0.812800	0.943500	0.789000
C1351	C135	0.780100	0.962700	0.730200
C1361	C136	0.719500	0.907800	0.706700
C1371	C137	0.692500	0.837400	0.736500
C1381	C138	0.724500	0.818400	0.795900
C1391	C139	0.783600	0.872000	0.821700
C1401	C140	0.692600	0.745900	0.832400
C1411	C141	0.620100	0.702300	0.819100
C1421	C142	0.590100	0.639500	0.858800
C1431	C143	0.701600	0.656300	0.923700
C1441	C144	0.737500	0.718000	0.885500
C1451	C145	0.035800	0.245700	0.287600
C1461	C146	0.090700	0.311700	0.283800
C1471	C147	0.139800	0.321900	0.229000
C1481	C148	0.124700	0.261900	0.182500
C1491	C149	0.068400	0.198600	0.191400
C1501	C150	0.205300	0.388100	0.223900
C1511	C151	0.204000	0.461400	0.259300
C1521	C152	0.265200	0.521100	0.253100
C1531	C153	0.332700	0.509900	0.212900
C1541	C154	0.335900	0.436400	0.176900
C1551	C155	0.272600	0.377200	0.181600
C1561	C156	0.406300	0.427300	0.132800
C1571	C157	0.501800	0.375700	0.069700
C1581	C158	0.556500	0.312800	0.039000
C1591	C159	0.537300	0.280100	0.980200
C1601	C160	0.592200	0.219500	0.956700
C1611	C161	0.662600	0.192500	0.986500
C1621	C162	0.681600	0.224500	0.045900
C1631	C163	0.628000	0.283600	0.071700
C1641	C164	0.754100	0.192600	0.082400
C1651	C165	0.797700	0.120100	0.069100
C1661	C166	0.860500	0.090100	0.108800
C1671	C167	0.843700	0.201600	0.173700
C1681	C168	0.782000	0.237500	0.135500
C1691	C169	0.964200	0.754300	0.787600
C1701	C170	0.909300	0.688300	0.783800
C1711	C171	0.860200	0.678100	0.729000
C1721	C172	0.875300	0.738100	0.682500
C1731	C173	0.931600	0.801400	0.691400
C1741	C174	0.794700	0.611900	0.723900
C1751	C175	0.796000	0.538600	0.759300
C1761	C176	0.734800	0.478900	0.753100
C1771	C177	0.667300	0.490100	0.712900
C1781	C178	0.664100	0.563600	0.676900
C1791	C179	0.727400	0.622800	0.681600
C1801	C180	0.593700	0.572700	0.632800
C1811	C181	0.498200	0.624300	0.569700
C1821	C182	0.443500	0.687200	0.539000
C1831	C183	0.462700	0.719900	0.480200
C1841	C184	0.407800	0.780500	0.456700
C1851	C185	0.337400	0.807500	0.486500
C1861	C186	0.318400	0.775500	0.545900
C1871	C187	0.372000	0.716400	0.571700
C1881	C188	0.245900	0.807400	0.582400
C1891	C189	0.202300	0.879900	0.569100
C1901	C190	0.139500	0.909900	0.608800
C1911	C191	0.156300	0.798400	0.673700
C1921	C192	0.218000	0.762500	0.635500
N11	N1	0.187700	0.023200	0.756500
N21	N2	0.491200	0.444600	0.893500
N31	N3	0.457900	0.505000	0.933000
N41	N4	0.353600	0.441400	0.888400
N51	N5	0.271500	0.421700	0.867800
N61	N6	0.127200	0.880000	0.837700
N71	N7	0.812300	0.976800	0.256500
N81	N8	0.508800	0.555400	0.393500
N91	N9	0.542100	0.495000	0.433000
N101	N10	0.646400	0.558600	0.388400
N111	N11	0.728500	0.578300	0.367800
N121	N12	0.872800	0.120000	0.337700
N131	N13	0.476800	0.687700	0.006500
N141	N14	0.055400	0.991200	0.143500
N151	N15	0.995000	0.957900	0.183000
N161	N16	0.058600	0.853600	0.138400
N171	N17	0.078300	0.771500	0.117800
N181	N18	0.620000	0.627200	0.087700
N191	N19	0.523200	0.312300	0.506500
N201	N20	0.944600	0.008800	0.643500
N211	N21	0.005000	0.042100	0.683000
N221	N22	0.941400	0.146400	0.638400
N231	N23	0.921700	0.228500	0.617800
N241	N24	0.380000	0.372800	0.587700
N251	N25	0.312300	0.523200	0.493500
N261	N26	0.008800	0.944600	0.356500
N271	N27	0.042100	0.005000	0.317000
N281	N28	0.146400	0.941400	0.361600
N291	N29	0.228500	0.921700	0.382200
N301	N30	0.372800	0.380000	0.412300
N311	N31	0.687700	0.476800	0.993500
N321	N32	0.991200	0.055400	0.856500
N331	N33	0.957900	0.995000	0.817000
N341	N34	0.853600	0.058600	0.861600
N351	N35	0.771500	0.078300	0.882200
N361	N36	0.627200	0.620000	0.912300
N371	N37	0.023200	0.187700	0.243500
N381	N38	0.444600	0.491200	0.106500
N391	N39	0.505000	0.457900	0.067000
N401	N40	0.441400	0.353600	0.111600
N411	N41	0.421700	0.271500	0.132200
N421	N42	0.880000	0.127200	0.162300
N431	N43	0.976800	0.812300	0.743500
N441	N44	0.555400	0.508800	0.606500
N451	N45	0.495000	0.542100	0.567000
N461	N46	0.558600	0.646400	0.611600
N471	N47	0.578300	0.728500	0.632200
N481	N48	0.120000	0.872800	0.662300
Cl11	Cl1	0.879540	0.879540	0.000000
O11	O1	0.903900	0.824400	0.951200
O21	O2	0.861900	0.941800	0.955400
O31	O3	0.824400	0.903900	0.048800
O41	O4	0.941800	0.861900	0.044600
Cl21	Cl2	0.120460	0.120460	0.500000
O51	O5	0.096100	0.175600	0.451200
O61	O6	0.138100	0.058200	0.455400
O71	O7	0.175600	0.096100	0.548800
O81	O8	0.058200	0.138100	0.544600
Cl31	Cl3	0.620460	0.379540	0.250000
O91	O9	0.675600	0.403900	0.201200
O101	O10	0.558200	0.361900	0.205400
O111	O11	0.596100	0.324400	0.298800
O121	O12	0.638100	0.441800	0.294600
Cl41	Cl4	0.379540	0.620460	0.750000
O131	O13	0.324400	0.596100	0.701200
O141	O14	0.441800	0.638100	0.705400
O151	O15	0.403900	0.675600	0.798800
O161	O16	0.361900	0.558200	0.794600
