data_WUNSII02_charged_PM
_symmetry_space_group_name_H-M	'P1'
_cell_length_a	15.895500
_cell_length_b	15.895500
_cell_length_c	21.599000
_cell_angle_alpha	90.000000
_cell_angle_beta	90.000000
_cell_angle_gamma	90.000000
_symmetry_Int_Tables_number 1

loop_
_symmetry_equiv_pos_as_xyz
'x,y,z'

loop_
_atom_site_label
_atom_site_type_symbol
_atom_site_fract_x
_atom_site_fract_y
_atom_site_fract_z
Cd11	Cd1	0.441470	0.441470	0.000000
Cd21	Cd2	0.558530	0.558530	0.500000
Cd31	Cd3	0.058530	0.941470	0.250000
Cd41	Cd4	0.941470	0.058530	0.750000
H11	H1	0.111200	0.960900	0.100000
H21	H2	0.216700	0.914100	0.036100
H31	H3	0.240200	0.714200	0.145100
H41	H4	0.139900	0.770300	0.209700
H51	H5	0.301900	0.852000	0.971000
H61	H6	0.411200	0.799100	0.915200
H71	H7	0.503500	0.700600	0.958900
H81	H8	0.361200	0.696900	0.111300
H91	H9	0.622000	0.455200	0.208500
H101	H10	0.730800	0.437400	0.277300
H111	H11	0.837400	0.533200	0.284900
H121	H12	0.722200	0.676500	0.156400
H131	H13	0.902400	0.650500	0.309800
H141	H14	0.993700	0.760100	0.320600
H151	H15	0.937700	0.844400	0.158700
H161	H16	0.843500	0.737000	0.143100
H171	H17	0.531600	0.750000	0.154600
H181	H18	0.583700	0.764300	0.100300
H191	H19	0.888800	0.039100	0.600000
H201	H20	0.783300	0.085900	0.536100
H211	H21	0.759800	0.285800	0.645100
H221	H22	0.860100	0.229700	0.709700
H231	H23	0.698100	0.148000	0.471000
H241	H24	0.588800	0.200900	0.415200
H251	H25	0.496500	0.299400	0.458900
H261	H26	0.638800	0.303100	0.611300
H271	H27	0.378000	0.544800	0.708500
H281	H28	0.269200	0.562600	0.777300
H291	H29	0.162600	0.466800	0.784900
H301	H30	0.277800	0.323500	0.656400
H311	H31	0.097600	0.349500	0.809800
H321	H32	0.006300	0.239900	0.820600
H331	H33	0.062300	0.155600	0.658700
H341	H34	0.156500	0.263000	0.643100
H351	H35	0.468400	0.250000	0.654600
H361	H36	0.416300	0.235700	0.600300
H371	H37	0.539100	0.611200	0.350000
H381	H38	0.585900	0.716700	0.286100
H391	H39	0.785800	0.740200	0.395100
H401	H40	0.729700	0.639900	0.459700
H411	H41	0.648000	0.801900	0.221000
H421	H42	0.700900	0.911200	0.165200
H431	H43	0.799400	0.003500	0.208900
H441	H44	0.803100	0.861200	0.361300
H451	H45	0.044800	0.122000	0.458500
H461	H46	0.062600	0.230800	0.527300
H471	H47	0.966800	0.337400	0.534900
H481	H48	0.823500	0.222200	0.406400
H491	H49	0.849500	0.402400	0.559800
H501	H50	0.739900	0.493700	0.570600
H511	H51	0.655600	0.437700	0.408700
H521	H52	0.763000	0.343500	0.393100
H531	H53	0.750000	0.031600	0.404600
H541	H54	0.735700	0.083700	0.350300
H551	H55	0.460900	0.388800	0.850000
H561	H56	0.414100	0.283300	0.786100
H571	H57	0.214200	0.259800	0.895100
H581	H58	0.270300	0.360100	0.959700
H591	H59	0.352000	0.198100	0.721000
H601	H60	0.299100	0.088800	0.665200
H611	H61	0.200600	0.996500	0.708900
H621	H62	0.196900	0.138800	0.861300
H631	H63	0.955200	0.878000	0.958500
H641	H64	0.937400	0.769200	0.027300
H651	H65	0.033200	0.662600	0.034900
H661	H66	0.176500	0.777800	0.906400
H671	H67	0.150500	0.597600	0.059800
H681	H68	0.260100	0.506300	0.070600
H691	H69	0.344400	0.562300	0.908700
H701	H70	0.237000	0.656500	0.893100
H711	H71	0.250000	0.968400	0.904600
H721	H72	0.264300	0.916300	0.850300
H731	H73	0.388800	0.460900	0.150000
H741	H74	0.283300	0.414100	0.213900
H751	H75	0.259800	0.214200	0.104900
H761	H76	0.360100	0.270300	0.040300
H771	H77	0.198100	0.352000	0.279000
H781	H78	0.088800	0.299100	0.334800
H791	H79	0.996500	0.200600	0.291100
H801	H80	0.138800	0.196900	0.138700
H811	H81	0.878000	0.955200	0.041500
H821	H82	0.769200	0.937400	0.972700
H831	H83	0.662600	0.033200	0.965100
H841	H84	0.777800	0.176500	0.093600
H851	H85	0.597600	0.150500	0.940200
H861	H86	0.506300	0.260100	0.929400
H871	H87	0.562300	0.344400	0.091300
H881	H88	0.656500	0.237000	0.106900
H891	H89	0.968400	0.250000	0.095400
H901	H90	0.916300	0.264300	0.149700
H911	H91	0.611200	0.539100	0.650000
H921	H92	0.716700	0.585900	0.713900
H931	H93	0.740200	0.785800	0.604900
H941	H94	0.639900	0.729700	0.540300
H951	H95	0.801900	0.648000	0.779000
H961	H96	0.911200	0.700900	0.834800
H971	H97	0.003500	0.799400	0.791100
H981	H98	0.861200	0.803100	0.638700
H991	H99	0.122000	0.044800	0.541500
H1001	H100	0.230800	0.062600	0.472700
H1011	H101	0.337400	0.966800	0.465100
H1021	H102	0.222200	0.823500	0.593600
H1031	H103	0.402400	0.849500	0.440200
H1041	H104	0.493700	0.739900	0.429400
H1051	H105	0.437700	0.655600	0.591300
H1061	H106	0.343500	0.763000	0.606900
H1071	H107	0.031600	0.750000	0.595400
H1081	H108	0.083700	0.735700	0.649700
H1091	H109	0.960900	0.111200	0.900000
H1101	H110	0.914100	0.216700	0.963900
H1111	H111	0.714200	0.240200	0.854900
H1121	H112	0.770300	0.139900	0.790300
H1131	H113	0.852000	0.301900	0.029000
H1141	H114	0.799100	0.411200	0.084800
H1151	H115	0.700600	0.503500	0.041100
H1161	H116	0.696900	0.361200	0.888700
H1171	H117	0.455200	0.622000	0.791500
H1181	H118	0.437400	0.730800	0.722700
H1191	H119	0.533200	0.837400	0.715100
H1201	H120	0.676500	0.722200	0.843600
H1211	H121	0.650500	0.902400	0.690200
H1221	H122	0.760100	0.993700	0.679400
H1231	H123	0.844400	0.937700	0.841300
H1241	H124	0.737000	0.843500	0.856900
H1251	H125	0.750000	0.531600	0.845400
H1261	H126	0.764300	0.583700	0.899700
H1271	H127	0.039100	0.888800	0.400000
H1281	H128	0.085900	0.783300	0.463900
H1291	H129	0.285800	0.759800	0.354900
H1301	H130	0.229700	0.860100	0.290300
H1311	H131	0.148000	0.698100	0.529000
H1321	H132	0.200900	0.588800	0.584800
H1331	H133	0.299400	0.496500	0.541100
H1341	H134	0.303100	0.638800	0.388700
H1351	H135	0.544800	0.378000	0.291500
H1361	H136	0.562600	0.269200	0.222700
H1371	H137	0.466800	0.162600	0.215100
H1381	H138	0.323500	0.277800	0.343600
H1391	H139	0.349500	0.097600	0.190200
H1401	H140	0.239900	0.006300	0.179400
H1411	H141	0.155600	0.062300	0.341300
H1421	H142	0.263000	0.156500	0.356900
H1431	H143	0.250000	0.468400	0.345400
H1441	H144	0.235700	0.416300	0.399700
C11	C1	0.140500	0.912600	0.111200
C21	C2	0.203200	0.883700	0.071500
C31	C3	0.245700	0.809200	0.084900
C41	C4	0.217700	0.766800	0.136100
C51	C5	0.156600	0.800400	0.174800
C61	C6	0.318000	0.779600	0.047500
C71	C7	0.335800	0.810300	0.988100
C81	C8	0.402000	0.779900	0.955300
C91	C9	0.457000	0.719600	0.981000
C101	C10	0.440000	0.689200	0.040300
C111	C11	0.372100	0.718300	0.072100
C121	C12	0.495600	0.626500	0.070200
C131	C13	0.592400	0.576200	0.132600
C141	C14	0.660500	0.568200	0.175700
C151	C15	0.663800	0.495900	0.211800
C161	C16	0.729500	0.485200	0.252400
C171	C17	0.793300	0.542700	0.257500
C181	C18	0.792000	0.617500	0.220600
C191	C19	0.724800	0.628200	0.180600
C201	C20	0.858100	0.682900	0.226300
C211	C21	0.906900	0.690200	0.278300
C221	C22	0.962800	0.756200	0.284200
C231	C23	0.930100	0.805200	0.190200
C241	C24	0.872300	0.740700	0.180500
C251	C25	0.859500	0.087400	0.611200
C261	C26	0.796800	0.116300	0.571500
C271	C27	0.754300	0.190800	0.584900
C281	C28	0.782300	0.233200	0.636100
C291	C29	0.843400	0.199600	0.674800
C301	C30	0.682000	0.220400	0.547500
C311	C31	0.664200	0.189700	0.488100
C321	C32	0.598000	0.220100	0.455300
C331	C33	0.543000	0.280400	0.481000
C341	C34	0.560000	0.310800	0.540300
C351	C35	0.627900	0.281700	0.572100
C361	C36	0.504400	0.373500	0.570200
C371	C37	0.407600	0.423800	0.632600
C381	C38	0.339500	0.431800	0.675700
C391	C39	0.336200	0.504100	0.711800
C401	C40	0.270500	0.514800	0.752400
C411	C41	0.206700	0.457300	0.757500
C421	C42	0.208000	0.382500	0.720600
C431	C43	0.275200	0.371800	0.680600
C441	C44	0.141900	0.317100	0.726300
C451	C45	0.093100	0.309800	0.778300
C461	C46	0.037200	0.243800	0.784200
C471	C47	0.069900	0.194800	0.690200
C481	C48	0.127700	0.259300	0.680500
C491	C49	0.587400	0.640500	0.361200
C501	C50	0.616300	0.703200	0.321500
C511	C51	0.690800	0.745700	0.334900
C521	C52	0.733200	0.717700	0.386100
C531	C53	0.699600	0.656600	0.424800
C541	C54	0.720400	0.818000	0.297500
C551	C55	0.689700	0.835800	0.238100
C561	C56	0.720100	0.902000	0.205300
C571	C57	0.780400	0.957000	0.231000
C581	C58	0.810800	0.940000	0.290300
C591	C59	0.781700	0.872100	0.322100
C601	C60	0.873500	0.995600	0.320200
C611	C61	0.923800	0.092400	0.382600
C621	C62	0.931800	0.160500	0.425700
C631	C63	0.004100	0.163800	0.461800
C641	C64	0.014800	0.229500	0.502400
C651	C65	0.957300	0.293300	0.507500
C661	C66	0.882500	0.292000	0.470600
C671	C67	0.871800	0.224800	0.430600
C681	C68	0.817100	0.358100	0.476300
C691	C69	0.809800	0.406900	0.528300
C701	C70	0.743800	0.462800	0.534200
C711	C71	0.694800	0.430100	0.440200
C721	C72	0.759300	0.372300	0.430500
C731	C73	0.412600	0.359500	0.861200
C741	C74	0.383700	0.296800	0.821500
C751	C75	0.309200	0.254300	0.834900
C761	C76	0.266800	0.282300	0.886100
C771	C77	0.300400	0.343400	0.924800
C781	C78	0.279600	0.182000	0.797500
C791	C79	0.310300	0.164200	0.738100
C801	C80	0.279900	0.098000	0.705300
C811	C81	0.219600	0.043000	0.731000
C821	C82	0.189200	0.060000	0.790300
C831	C83	0.218300	0.127900	0.822100
C841	C84	0.126500	0.004400	0.820200
C851	C85	0.076200	0.907600	0.882600
C861	C86	0.068200	0.839500	0.925700
C871	C87	0.995900	0.836200	0.961800
C881	C88	0.985200	0.770500	0.002400
C891	C89	0.042700	0.706700	0.007500
C901	C90	0.117500	0.708000	0.970600
C911	C91	0.128200	0.775200	0.930600
C921	C92	0.182900	0.641900	0.976300
C931	C93	0.190200	0.593100	0.028300
C941	C94	0.256200	0.537200	0.034200
C951	C95	0.305200	0.569900	0.940200
C961	C96	0.240700	0.627700	0.930500
C971	C97	0.359500	0.412600	0.138800
C981	C98	0.296800	0.383700	0.178500
C991	C99	0.254300	0.309200	0.165100
C1001	C100	0.282300	0.266800	0.113900
C1011	C101	0.343400	0.300400	0.075200
C1021	C102	0.182000	0.279600	0.202500
C1031	C103	0.164200	0.310300	0.261900
C1041	C104	0.098000	0.279900	0.294700
C1051	C105	0.043000	0.219600	0.269000
C1061	C106	0.060000	0.189200	0.209700
C1071	C107	0.127900	0.218300	0.177900
C1081	C108	0.004400	0.126500	0.179800
C1091	C109	0.907600	0.076200	0.117400
C1101	C110	0.839500	0.068200	0.074300
C1111	C111	0.836200	0.995900	0.038200
C1121	C112	0.770500	0.985200	0.997600
C1131	C113	0.706700	0.042700	0.992500
C1141	C114	0.708000	0.117500	0.029400
C1151	C115	0.775200	0.128200	0.069400
C1161	C116	0.641900	0.182900	0.023700
C1171	C117	0.593100	0.190200	0.971700
C1181	C118	0.537200	0.256200	0.965800
C1191	C119	0.569900	0.305200	0.059800
C1201	C120	0.627700	0.240700	0.069500
C1211	C121	0.640500	0.587400	0.638800
C1221	C122	0.703200	0.616300	0.678500
C1231	C123	0.745700	0.690800	0.665100
C1241	C124	0.717700	0.733200	0.613900
C1251	C125	0.656600	0.699600	0.575200
C1261	C126	0.818000	0.720400	0.702500
C1271	C127	0.835800	0.689700	0.761900
C1281	C128	0.902000	0.720100	0.794700
C1291	C129	0.957000	0.780400	0.769000
C1301	C130	0.940000	0.810800	0.709700
C1311	C131	0.872100	0.781700	0.677900
C1321	C132	0.995600	0.873500	0.679800
C1331	C133	0.092400	0.923800	0.617400
C1341	C134	0.160500	0.931800	0.574300
C1351	C135	0.163800	0.004100	0.538200
C1361	C136	0.229500	0.014800	0.497600
C1371	C137	0.293300	0.957300	0.492500
C1381	C138	0.292000	0.882500	0.529400
C1391	C139	0.224800	0.871800	0.569400
C1401	C140	0.358100	0.817100	0.523700
C1411	C141	0.406900	0.809800	0.471700
C1421	C142	0.462800	0.743800	0.465800
C1431	C143	0.430100	0.694800	0.559800
C1441	C144	0.372300	0.759300	0.569500
C1451	C145	0.912600	0.140500	0.888800
C1461	C146	0.883700	0.203200	0.928500
C1471	C147	0.809200	0.245700	0.915100
C1481	C148	0.766800	0.217700	0.863900
C1491	C149	0.800400	0.156600	0.825200
C1501	C150	0.779600	0.318000	0.952500
C1511	C151	0.810300	0.335800	0.011900
C1521	C152	0.779900	0.402000	0.044700
C1531	C153	0.719600	0.457000	0.019000
C1541	C154	0.689200	0.440000	0.959700
C1551	C155	0.718300	0.372100	0.927900
C1561	C156	0.626500	0.495600	0.929800
C1571	C157	0.576200	0.592400	0.867400
C1581	C158	0.568200	0.660500	0.824300
C1591	C159	0.495900	0.663800	0.788200
C1601	C160	0.485200	0.729500	0.747600
C1611	C161	0.542700	0.793300	0.742500
C1621	C162	0.617500	0.792000	0.779400
C1631	C163	0.628200	0.724800	0.819400
C1641	C164	0.682900	0.858100	0.773700
C1651	C165	0.690200	0.906900	0.721700
C1661	C166	0.756200	0.962800	0.715800
C1671	C167	0.805200	0.930100	0.809800
C1681	C168	0.740700	0.872300	0.819500
C1691	C169	0.087400	0.859500	0.388800
C1701	C170	0.116300	0.796800	0.428500
C1711	C171	0.190800	0.754300	0.415100
C1721	C172	0.233200	0.782300	0.363900
C1731	C173	0.199600	0.843400	0.325200
C1741	C174	0.220400	0.682000	0.452500
C1751	C175	0.189700	0.664200	0.511900
C1761	C176	0.220100	0.598000	0.544700
C1771	C177	0.280400	0.543000	0.519000
C1781	C178	0.310800	0.560000	0.459700
C1791	C179	0.281700	0.627900	0.427900
C1801	C180	0.373500	0.504400	0.429800
C1811	C181	0.423800	0.407600	0.367400
C1821	C182	0.431800	0.339500	0.324300
C1831	C183	0.504100	0.336200	0.288200
C1841	C184	0.514800	0.270500	0.247600
C1851	C185	0.457300	0.206700	0.242500
C1861	C186	0.382500	0.208000	0.279400
C1871	C187	0.371800	0.275200	0.319400
C1881	C188	0.317100	0.141900	0.273700
C1891	C189	0.309800	0.093100	0.221700
C1901	C190	0.243800	0.037200	0.215800
C1911	C191	0.194800	0.069900	0.309800
C1921	C192	0.259300	0.127700	0.319500
N11	N1	0.555000	0.512500	0.104800
N21	N2	0.493600	0.544700	0.066100
N31	N3	0.556300	0.648500	0.111500
N41	N4	0.574900	0.730800	0.132700
N51	N5	0.975000	0.814000	0.241600
N61	N6	0.120600	0.876200	0.162900
N71	N7	0.445000	0.487500	0.604800
N81	N8	0.506400	0.455300	0.566100
N91	N9	0.443700	0.351500	0.611500
N101	N10	0.425100	0.269200	0.632700
N111	N11	0.025000	0.186000	0.741600
N121	N12	0.879400	0.123800	0.662900
N131	N13	0.987500	0.055000	0.354800
N141	N14	0.955300	0.993600	0.316100
N151	N15	0.851500	0.056300	0.361500
N161	N16	0.769200	0.074900	0.382700
N171	N17	0.686000	0.475000	0.491600
N181	N18	0.623800	0.620600	0.412900
N191	N19	0.012500	0.945000	0.854800
N201	N20	0.044700	0.006400	0.816100
N211	N21	0.148500	0.943700	0.861500
N221	N22	0.230800	0.925100	0.882700
N231	N23	0.314000	0.525000	0.991600
N241	N24	0.376200	0.379400	0.912900
N251	N25	0.945000	0.012500	0.145200
N261	N26	0.006400	0.044700	0.183900
N271	N27	0.943700	0.148500	0.138500
N281	N28	0.925100	0.230800	0.117300
N291	N29	0.525000	0.314000	0.008400
N301	N30	0.379400	0.376200	0.087100
N311	N31	0.055000	0.987500	0.645200
N321	N32	0.993600	0.955300	0.683900
N331	N33	0.056300	0.851500	0.638500
N341	N34	0.074900	0.769200	0.617300
N351	N35	0.475000	0.686000	0.508400
N361	N36	0.620600	0.623800	0.587100
N371	N37	0.512500	0.555000	0.895200
N381	N38	0.544700	0.493600	0.933900
N391	N39	0.648500	0.556300	0.888500
N401	N40	0.730800	0.574900	0.867300
N411	N41	0.814000	0.975000	0.758400
N421	N42	0.876200	0.120600	0.837100
N431	N43	0.487500	0.445000	0.395200
N441	N44	0.455300	0.506400	0.433900
N451	N45	0.351500	0.443700	0.388500
N461	N46	0.269200	0.425100	0.367300
N471	N47	0.186000	0.025000	0.258400
N481	N48	0.123800	0.879400	0.337100
Cl11	Cl1	0.731440	0.731440	0.000000
O11	O1	0.756500	0.775000	0.053400
O21	O2	0.661000	0.776000	0.973700
O31	O3	0.775000	0.756500	0.946600
O41	O4	0.776000	0.661000	0.026300
Cl21	Cl2	0.268560	0.268560	0.500000
O51	O5	0.243500	0.225000	0.553400
O61	O6	0.339000	0.224000	0.473700
O71	O7	0.225000	0.243500	0.446600
O81	O8	0.224000	0.339000	0.526300
Cl31	Cl3	0.768560	0.231440	0.250000
O91	O9	0.725000	0.256500	0.303400
O101	O10	0.724000	0.161000	0.223700
O111	O11	0.743500	0.275000	0.196600
O121	O12	0.839000	0.276000	0.276300
Cl41	Cl4	0.231440	0.768560	0.750000
O131	O13	0.275000	0.743500	0.803400
O141	O14	0.276000	0.839000	0.723700
O151	O15	0.256500	0.725000	0.696600
O161	O16	0.161000	0.724000	0.776300
