data_WUNTIJ_clean_PM
_symmetry_space_group_name_H-M	'P1'
_cell_length_a	15.884000
_cell_length_b	15.884000
_cell_length_c	21.440000
_cell_angle_alpha	90.000000
_cell_angle_beta	90.000000
_cell_angle_gamma	90.000000
_symmetry_Int_Tables_number 1

loop_
_symmetry_equiv_pos_as_xyz
'x,y,z'

loop_
_atom_site_label
_atom_site_type_symbol
_atom_site_fract_x
_atom_site_fract_y
_atom_site_fract_z
C11	C1	0.931700	0.802600	0.809900
H11	H1	0.939700	0.841400	0.841900
C21	C2	0.874800	0.738900	0.819300
H21	H2	0.846500	0.735100	0.857200
C31	C3	0.859000	0.680200	0.772900
C41	C4	0.907500	0.688700	0.719400
H31	H3	0.902200	0.649800	0.687200
C51	C5	0.964100	0.755300	0.713900
H41	H4	0.995100	0.759700	0.677200
C61	C6	0.793800	0.614400	0.778600
C71	C7	0.792600	0.542700	0.741200
H51	H5	0.834600	0.535200	0.711500
C81	C8	0.730400	0.482700	0.747400
H61	H6	0.733500	0.433400	0.724200
C91	C9	0.663800	0.495100	0.787400
H71	H7	0.620700	0.455600	0.790000
C101	C10	0.661600	0.567200	0.823700
C111	C11	0.725800	0.625800	0.819400
H81	H8	0.723700	0.673900	0.844200
C121	C12	0.592100	0.575600	0.868100
C131	C13	0.495200	0.625700	0.931000
C141	C14	0.440000	0.688300	0.961200
C151	C15	0.458500	0.720000	0.020500
H91	H9	0.506400	0.702600	0.041800
C161	C16	0.403600	0.778300	0.046900
H101	H10	0.413600	0.798200	0.087000
C171	C17	0.333800	0.807200	0.013800
H111	H11	0.298100	0.846700	0.031900
C181	C18	0.317000	0.778400	0.955000
C191	C19	0.371200	0.716300	0.929300
H121	H12	0.359500	0.694300	0.890100
C201	C20	0.245500	0.808800	0.917100
C211	C21	0.201800	0.883100	0.930400
H131	H13	0.214200	0.912800	0.966700
C221	C22	0.140800	0.912900	0.890600
H141	H14	0.112900	0.962500	0.900900
C231	C23	0.156300	0.799800	0.826900
H151	H15	0.139600	0.769800	0.791700
C241	C24	0.216600	0.765300	0.864100
H161	H16	0.238900	0.712800	0.854400
N11	N1	0.493100	0.544200	0.933500
N21	N2	0.553500	0.511400	0.894100
N31	N3	0.556700	0.649000	0.890200
N41	N4	0.577300	0.730500	0.870000
H171	H17	0.533000	0.753100	0.850900
H181	H18	0.591100	0.761900	0.902900
N51	N5	0.976300	0.812400	0.757700
N61	N6	0.119900	0.873700	0.837800
C251	C25	0.068300	0.197400	0.309900
H191	H19	0.060300	0.158600	0.341900
C261	C26	0.125200	0.261100	0.319300
H201	H20	0.153500	0.264900	0.357200
C271	C27	0.141000	0.319800	0.272900
C281	C28	0.092500	0.311300	0.219400
H211	H21	0.097800	0.350200	0.187200
C291	C29	0.035900	0.244700	0.213900
H221	H22	0.004900	0.240300	0.177200
C301	C30	0.206200	0.385600	0.278600
C311	C31	0.207400	0.457300	0.241200
H231	H23	0.165400	0.464800	0.211500
C321	C32	0.269600	0.517300	0.247400
H241	H24	0.266500	0.566600	0.224200
C331	C33	0.336200	0.504900	0.287400
H251	H25	0.379300	0.544400	0.290000
C341	C34	0.338400	0.432800	0.323700
C351	C35	0.274200	0.374200	0.319400
H261	H26	0.276300	0.326100	0.344200
C361	C36	0.407900	0.424400	0.368100
C371	C37	0.504800	0.374300	0.431000
C381	C38	0.560000	0.311700	0.461200
C391	C39	0.541500	0.280000	0.520500
H271	H27	0.493600	0.297400	0.541800
C401	C40	0.596400	0.221700	0.546900
H281	H28	0.586400	0.201800	0.587000
C411	C41	0.666200	0.192800	0.513800
H291	H29	0.701900	0.153300	0.531900
C421	C42	0.683000	0.221600	0.455000
C431	C43	0.628800	0.283700	0.429300
H301	H30	0.640500	0.305700	0.390100
C441	C44	0.754500	0.191200	0.417100
C451	C45	0.798200	0.116900	0.430400
H311	H31	0.785800	0.087200	0.466700
C461	C46	0.859200	0.087100	0.390600
H321	H32	0.887100	0.037500	0.400900
C471	C47	0.843700	0.200200	0.326900
H331	H33	0.860400	0.230200	0.291700
C481	C48	0.783400	0.234700	0.364100
H341	H34	0.761100	0.287200	0.354400
N71	N7	0.506900	0.455800	0.433500
N81	N8	0.446500	0.488600	0.394100
N91	N9	0.443300	0.351000	0.390200
N101	N10	0.422700	0.269500	0.370000
H351	H35	0.467000	0.246900	0.350900
H361	H36	0.408900	0.238100	0.402900
N111	N11	0.023700	0.187600	0.257700
N121	N12	0.880100	0.126300	0.337800
C491	C49	0.697400	0.431700	0.559900
H371	H37	0.658600	0.439700	0.591900
C501	C50	0.761100	0.374800	0.569300
H381	H38	0.764900	0.346500	0.607200
C511	C51	0.819800	0.359000	0.522900
C521	C52	0.811300	0.407500	0.469400
H391	H39	0.850200	0.402200	0.437200
C531	C53	0.744700	0.464100	0.463900
H401	H40	0.740300	0.495100	0.427200
C541	C54	0.885600	0.293800	0.528600
C551	C55	0.957300	0.292600	0.491200
H411	H41	0.964800	0.334600	0.461500
C561	C56	0.017300	0.230400	0.497400
H421	H42	0.066600	0.233500	0.474200
C571	C57	0.004900	0.163800	0.537400
H431	H43	0.044400	0.120700	0.540000
C581	C58	0.932800	0.161600	0.573700
C591	C59	0.874200	0.225800	0.569400
H441	H44	0.826100	0.223700	0.594200
C601	C60	0.924400	0.092100	0.618100
C611	C61	0.874300	0.995200	0.681000
C621	C62	0.811700	0.940000	0.711200
C631	C63	0.780000	0.958500	0.770500
H451	H45	0.797400	0.006400	0.791800
C641	C64	0.721700	0.903600	0.796900
H461	H46	0.701800	0.913600	0.837000
C651	C65	0.692800	0.833800	0.763800
H471	H47	0.653300	0.798100	0.781900
C661	C66	0.721600	0.817000	0.705000
C671	C67	0.783700	0.871200	0.679300
H481	H48	0.805700	0.859500	0.640100
C681	C68	0.691200	0.745500	0.667100
C691	C69	0.616900	0.701800	0.680400
H491	H49	0.587200	0.714200	0.716700
C701	C70	0.587100	0.640800	0.640600
H501	H50	0.537500	0.612900	0.650900
C711	C71	0.700200	0.656300	0.576900
H511	H51	0.730200	0.639600	0.541700
C721	C72	0.734700	0.716600	0.614100
H521	H52	0.787200	0.738900	0.604400
N131	N13	0.955800	0.993100	0.683500
N141	N14	0.988600	0.053500	0.644100
N151	N15	0.851000	0.056700	0.640200
N161	N16	0.769500	0.077300	0.620000
H531	H53	0.746900	0.033000	0.600900
H541	H54	0.738100	0.091100	0.652900
N171	N17	0.687600	0.476300	0.507700
N181	N18	0.626300	0.619900	0.587800
C731	C73	0.302600	0.568300	0.059900
H551	H55	0.341400	0.560300	0.091900
C741	C74	0.238900	0.625200	0.069300
H561	H56	0.235100	0.653500	0.107200
C751	C75	0.180200	0.641000	0.022900
C761	C76	0.188700	0.592500	0.969400
H571	H57	0.149800	0.597800	0.937200
C771	C77	0.255300	0.535900	0.963900
H581	H58	0.259700	0.504900	0.927200
C781	C78	0.114400	0.706200	0.028600
C791	C79	0.042700	0.707400	0.991200
H591	H59	0.035200	0.665400	0.961500
C801	C80	0.982700	0.769600	0.997400
H601	H60	0.933400	0.766500	0.974200
C811	C81	0.995100	0.836200	0.037400
H611	H61	0.955600	0.879300	0.040000
C821	C82	0.067200	0.838400	0.073700
C831	C83	0.125800	0.774200	0.069400
H621	H62	0.173900	0.776300	0.094200
C841	C84	0.075600	0.907900	0.118100
C851	C85	0.125700	0.004800	0.181000
C861	C86	0.188300	0.060000	0.211200
C871	C87	0.220000	0.041500	0.270500
H631	H63	0.202600	0.993600	0.291800
C881	C88	0.278300	0.096400	0.296900
H641	H64	0.298200	0.086400	0.337000
C891	C89	0.307200	0.166200	0.263800
H651	H65	0.346700	0.201900	0.281900
C901	C90	0.278400	0.183000	0.205000
C911	C91	0.216300	0.128800	0.179300
H661	H66	0.194300	0.140500	0.140100
C921	C92	0.308800	0.254500	0.167100
C931	C93	0.383100	0.298200	0.180400
H671	H67	0.412800	0.285800	0.216700
C941	C94	0.412900	0.359200	0.140600
H681	H68	0.462500	0.387100	0.150900
C951	C95	0.299800	0.343700	0.076900
H691	H69	0.269800	0.360400	0.041700
C961	C96	0.265300	0.283400	0.114100
H701	H70	0.212800	0.261100	0.104400
N191	N19	0.044200	0.006900	0.183500
N201	N20	0.011400	0.946500	0.144100
N211	N21	0.149000	0.943300	0.140200
N221	N22	0.230500	0.922700	0.120000
H711	H71	0.253100	0.967000	0.100900
H721	H72	0.261900	0.908900	0.152900
N231	N23	0.312400	0.523700	0.007700
N241	N24	0.373700	0.380100	0.087800
C971	C97	0.568300	0.302600	0.940100
H731	H73	0.560300	0.341400	0.908100
C981	C98	0.625200	0.238900	0.930700
H741	H74	0.653500	0.235100	0.892800
C991	C99	0.641000	0.180200	0.977100
C1001	C100	0.592500	0.188700	0.030600
H751	H75	0.597800	0.149800	0.062800
C1011	C101	0.535900	0.255300	0.036100
H761	H76	0.504900	0.259700	0.072800
C1021	C102	0.706200	0.114400	0.971400
C1031	C103	0.707400	0.042700	0.008800
H771	H77	0.665400	0.035200	0.038500
C1041	C104	0.769600	0.982700	0.002600
H781	H78	0.766500	0.933400	0.025800
C1051	C105	0.836200	0.995100	0.962600
H791	H79	0.879300	0.955600	0.960000
C1061	C106	0.838400	0.067200	0.926300
C1071	C107	0.774200	0.125800	0.930600
H801	H80	0.776300	0.173900	0.905800
C1081	C108	0.907900	0.075600	0.881900
C1091	C109	0.004800	0.125700	0.819000
C1101	C110	0.060000	0.188300	0.788800
C1111	C111	0.041500	0.220000	0.729500
H811	H81	0.993600	0.202600	0.708200
C1121	C112	0.096400	0.278300	0.703100
H821	H82	0.086400	0.298200	0.663000
C1131	C113	0.166200	0.307200	0.736200
H831	H83	0.201900	0.346700	0.718100
C1141	C114	0.183000	0.278400	0.795000
C1151	C115	0.128800	0.216300	0.820700
H841	H84	0.140500	0.194300	0.859900
C1161	C116	0.254500	0.308800	0.832900
C1171	C117	0.298200	0.383100	0.819600
H851	H85	0.285800	0.412800	0.783300
C1181	C118	0.359200	0.412900	0.859400
H861	H86	0.387100	0.462500	0.849100
C1191	C119	0.343700	0.299800	0.923100
H871	H87	0.360400	0.269800	0.958300
C1201	C120	0.283400	0.265300	0.885900
H881	H88	0.261100	0.212800	0.895600
N251	N25	0.006900	0.044200	0.816500
N261	N26	0.946500	0.011400	0.855900
N271	N27	0.943300	0.149000	0.859800
N281	N28	0.922700	0.230500	0.880000
H891	H89	0.967000	0.253100	0.899100
H901	H90	0.908900	0.261900	0.847100
N291	N29	0.523700	0.312400	0.992300
N301	N30	0.380100	0.373700	0.912200
C1211	C121	0.431700	0.697400	0.440100
H911	H91	0.439700	0.658600	0.408100
C1221	C122	0.374800	0.761100	0.430700
H921	H92	0.346500	0.764900	0.392800
C1231	C123	0.359000	0.819800	0.477100
C1241	C124	0.407500	0.811300	0.530600
H931	H93	0.402200	0.850200	0.562800
C1251	C125	0.464100	0.744700	0.536100
H941	H94	0.495100	0.740300	0.572800
C1261	C126	0.293800	0.885600	0.471400
C1271	C127	0.292600	0.957300	0.508800
H951	H95	0.334600	0.964800	0.538500
C1281	C128	0.230400	0.017300	0.502600
H961	H96	0.233500	0.066600	0.525800
C1291	C129	0.163800	0.004900	0.462600
H971	H97	0.120700	0.044400	0.460000
C1301	C130	0.161600	0.932800	0.426300
C1311	C131	0.225800	0.874200	0.430600
H981	H98	0.223700	0.826100	0.405800
C1321	C132	0.092100	0.924400	0.381900
C1331	C133	0.995200	0.874300	0.319000
C1341	C134	0.940000	0.811700	0.288800
C1351	C135	0.958500	0.780000	0.229500
H991	H99	0.006400	0.797400	0.208200
C1361	C136	0.903600	0.721700	0.203100
H1001	H100	0.913600	0.701800	0.163000
C1371	C137	0.833800	0.692800	0.236200
H1011	H101	0.798100	0.653300	0.218100
C1381	C138	0.817000	0.721600	0.295000
C1391	C139	0.871200	0.783700	0.320700
H1021	H102	0.859500	0.805700	0.359900
C1401	C140	0.745500	0.691200	0.332900
C1411	C141	0.701800	0.616900	0.319600
H1031	H103	0.714200	0.587200	0.283300
C1421	C142	0.640800	0.587100	0.359400
H1041	H104	0.612900	0.537500	0.349100
C1431	C143	0.656300	0.700200	0.423100
H1051	H105	0.639600	0.730200	0.458300
C1441	C144	0.716600	0.734700	0.385900
H1061	H106	0.738900	0.787200	0.395600
N311	N31	0.993100	0.955800	0.316500
N321	N32	0.053500	0.988600	0.355900
N331	N33	0.056700	0.851000	0.359800
N341	N34	0.077300	0.769500	0.380000
H1071	H107	0.033000	0.746900	0.399100
H1081	H108	0.091100	0.738100	0.347100
N351	N35	0.476300	0.687600	0.492300
N361	N36	0.619900	0.626300	0.412200
C1451	C145	0.802600	0.931700	0.190100
H1091	H109	0.841400	0.939700	0.158100
C1461	C146	0.738900	0.874800	0.180700
H1101	H110	0.735100	0.846500	0.142800
C1471	C147	0.680200	0.859000	0.227100
C1481	C148	0.688700	0.907500	0.280600
H1111	H111	0.649800	0.902200	0.312800
C1491	C149	0.755300	0.964100	0.286100
H1121	H112	0.759700	0.995100	0.322800
C1501	C150	0.614400	0.793800	0.221400
C1511	C151	0.542700	0.792600	0.258800
H1131	H113	0.535200	0.834600	0.288500
C1521	C152	0.482700	0.730400	0.252600
H1141	H114	0.433400	0.733500	0.275800
C1531	C153	0.495100	0.663800	0.212600
H1151	H115	0.455600	0.620700	0.210000
C1541	C154	0.567200	0.661600	0.176300
C1551	C155	0.625800	0.725800	0.180600
H1161	H116	0.673900	0.723700	0.155800
C1561	C156	0.575600	0.592100	0.131900
C1571	C157	0.625700	0.495200	0.069000
C1581	C158	0.688300	0.440000	0.038800
C1591	C159	0.720000	0.458500	0.979500
H1171	H117	0.702600	0.506400	0.958200
C1601	C160	0.778300	0.403600	0.953100
H1181	H118	0.798200	0.413600	0.913000
C1611	C161	0.807200	0.333800	0.986200
H1191	H119	0.846700	0.298100	0.968100
C1621	C162	0.778400	0.317000	0.045000
C1631	C163	0.716300	0.371200	0.070700
H1201	H120	0.694300	0.359500	0.109900
C1641	C164	0.808800	0.245500	0.082900
C1651	C165	0.883100	0.201800	0.069600
H1211	H121	0.912800	0.214200	0.033300
C1661	C166	0.912900	0.140800	0.109400
H1221	H122	0.962500	0.112900	0.099100
C1671	C167	0.799800	0.156300	0.173100
H1231	H123	0.769800	0.139600	0.208300
C1681	C168	0.765300	0.216600	0.135900
H1241	H124	0.712800	0.238900	0.145600
N371	N37	0.544200	0.493100	0.066500
N381	N38	0.511400	0.553500	0.105900
N391	N39	0.649000	0.556700	0.109800
N401	N40	0.730500	0.577300	0.130000
H1251	H125	0.753100	0.533000	0.149100
H1261	H126	0.761900	0.591100	0.097100
N411	N41	0.812400	0.976300	0.242300
N421	N42	0.873700	0.119900	0.162200
C1691	C169	0.197400	0.068300	0.690100
H1271	H127	0.158600	0.060300	0.658100
C1701	C170	0.261100	0.125200	0.680700
H1281	H128	0.264900	0.153500	0.642800
C1711	C171	0.319800	0.141000	0.727100
C1721	C172	0.311300	0.092500	0.780600
H1291	H129	0.350200	0.097800	0.812800
C1731	C173	0.244700	0.035900	0.786100
H1301	H130	0.240300	0.004900	0.822800
C1741	C174	0.385600	0.206200	0.721400
C1751	C175	0.457300	0.207400	0.758800
H1311	H131	0.464800	0.165400	0.788500
C1761	C176	0.517300	0.269600	0.752600
H1321	H132	0.566600	0.266500	0.775800
C1771	C177	0.504900	0.336200	0.712600
H1331	H133	0.544400	0.379300	0.710000
C1781	C178	0.432800	0.338400	0.676300
C1791	C179	0.374200	0.274200	0.680600
H1341	H134	0.326100	0.276300	0.655800
C1801	C180	0.424400	0.407900	0.631900
C1811	C181	0.374300	0.504800	0.569000
C1821	C182	0.311700	0.560000	0.538800
C1831	C183	0.280000	0.541500	0.479500
H1351	H135	0.297400	0.493600	0.458200
C1841	C184	0.221700	0.596400	0.453100
H1361	H136	0.201800	0.586400	0.413000
C1851	C185	0.192800	0.666200	0.486200
H1371	H137	0.153300	0.701900	0.468100
C1861	C186	0.221600	0.683000	0.545000
C1871	C187	0.283700	0.628800	0.570700
H1381	H138	0.305700	0.640500	0.609900
C1881	C188	0.191200	0.754500	0.582900
C1891	C189	0.116900	0.798200	0.569600
H1391	H139	0.087200	0.785800	0.533300
C1901	C190	0.087100	0.859200	0.609400
H1401	H140	0.037500	0.887100	0.599100
C1911	C191	0.200200	0.843700	0.673100
H1411	H141	0.230200	0.860400	0.708300
C1921	C192	0.234700	0.783400	0.635900
H1421	H142	0.287200	0.761100	0.645600
N431	N43	0.455800	0.506900	0.566500
N441	N44	0.488600	0.446500	0.605900
N451	N45	0.351000	0.443300	0.609800
N461	N46	0.269500	0.422700	0.630000
H1431	H143	0.246900	0.467000	0.649100
H1441	H144	0.238100	0.408900	0.597100
N471	N47	0.187600	0.023700	0.742300
N481	N48	0.126300	0.880100	0.662200
Cd11	Cd1	0.440410	0.440410	0.000000
Cd21	Cd2	0.559590	0.559590	0.500000
Cd31	Cd3	0.059590	0.940410	0.750000
Cd41	Cd4	0.940410	0.059590	0.250000
