data_WUNTEF_clean_PM
_symmetry_space_group_name_H-M	'P1'
_cell_length_a	15.869800
_cell_length_b	15.869800
_cell_length_c	21.641000
_cell_angle_alpha	90.000000
_cell_angle_beta	90.000000
_cell_angle_gamma	90.000000
_symmetry_Int_Tables_number 1

loop_
_symmetry_equiv_pos_as_xyz
'x,y,z'

loop_
_atom_site_label
_atom_site_type_symbol
_atom_site_fract_x
_atom_site_fract_y
_atom_site_fract_z
C11	C1	0.462900	0.745800	0.035800
H11	H1	0.492600	0.740500	0.072600
C21	C2	0.407000	0.812600	0.030300
H21	H2	0.401100	0.851000	0.062400
C31	C3	0.360100	0.821800	0.976800
C41	C4	0.376300	0.763600	0.930300
H31	H3	0.348400	0.767900	0.892700
C51	C5	0.433700	0.699300	0.939900
H41	H4	0.442600	0.661100	0.908000
C61	C6	0.293600	0.887900	0.970600
C71	C7	0.294200	0.959000	0.007400
H51	H5	0.337500	0.966900	0.035800
C81	C8	0.231100	0.018500	0.002400
H61	H6	0.233200	0.067000	0.026400
C91	C9	0.165000	0.006400	0.962100
H71	H7	0.122200	0.046300	0.959300
C101	C10	0.162200	0.934200	0.925500
C111	C11	0.226400	0.875800	0.930000
H81	H8	0.224800	0.827600	0.905600
C121	C12	0.092000	0.926000	0.881710
C131	C13	0.995800	0.875200	0.819760
C141	C14	0.940400	0.813200	0.789240
C151	C15	0.956700	0.782300	0.730000
H91	H9	0.004100	0.800000	0.708300
C161	C16	0.901600	0.725400	0.704100
H101	H10	0.911200	0.706200	0.664100
C171	C17	0.832400	0.696200	0.736300
H111	H11	0.796500	0.656900	0.718200
C181	C18	0.816100	0.725400	0.796000
C191	C19	0.870400	0.784100	0.821400
H121	H12	0.859800	0.804700	0.860900
C201	C20	0.743700	0.693400	0.833500
C211	C21	0.716300	0.737000	0.885500
H131	H13	0.738300	0.789900	0.894600
C221	C22	0.657200	0.702000	0.923000
H141	H14	0.641200	0.731900	0.958000
C231	C23	0.641200	0.588300	0.859800
H151	H15	0.613500	0.538700	0.849400
C241	C24	0.701500	0.618300	0.819800
H161	H16	0.714200	0.588800	0.783900
N11	N1	0.053700	0.989900	0.855550
N21	N2	0.993300	0.957700	0.816310
N31	N3	0.057100	0.852900	0.860480
N41	N4	0.077200	0.770900	0.880300
H171	H17	0.096500	0.741400	0.848300
H181	H18	0.031200	0.746100	0.895300
N51	N5	0.476700	0.688700	0.991750
N61	N6	0.620100	0.626500	0.912760
C251	C25	0.537100	0.254200	0.535800
H191	H19	0.507400	0.259500	0.572600
C261	C26	0.593000	0.187400	0.530300
H201	H20	0.598900	0.149000	0.562400
C271	C27	0.639900	0.178200	0.476800
C281	C28	0.623700	0.236400	0.430300
H211	H21	0.651600	0.232100	0.392700
C291	C29	0.566300	0.300700	0.439900
H221	H22	0.557400	0.338900	0.408000
C301	C30	0.706400	0.112100	0.470600
C311	C31	0.705800	0.041000	0.507400
H231	H23	0.662500	0.033100	0.535800
C321	C32	0.768900	0.981500	0.502400
H241	H24	0.766800	0.933000	0.526400
C331	C33	0.835000	0.993600	0.462100
H251	H25	0.877800	0.953700	0.459300
C341	C34	0.837800	0.065800	0.425500
C351	C35	0.773600	0.124200	0.430000
H261	H26	0.775200	0.172400	0.405600
C361	C36	0.908000	0.074000	0.381710
C371	C37	0.004200	0.124800	0.319760
C381	C38	0.059600	0.186800	0.289240
C391	C39	0.043300	0.217700	0.230000
H271	H27	0.995900	0.200000	0.208300
C401	C40	0.098400	0.274600	0.204100
H281	H28	0.088800	0.293800	0.164100
C411	C41	0.167600	0.303800	0.236300
H291	H29	0.203500	0.343100	0.218200
C421	C42	0.183900	0.274600	0.296000
C431	C43	0.129600	0.215900	0.321400
H301	H30	0.140200	0.195300	0.360900
C441	C44	0.256300	0.306600	0.333500
C451	C45	0.283700	0.263000	0.385500
H311	H31	0.261700	0.210100	0.394600
C461	C46	0.342800	0.298000	0.423000
H321	H32	0.358800	0.268100	0.458000
C471	C47	0.358800	0.411700	0.359800
H331	H33	0.386500	0.461300	0.349400
C481	C48	0.298500	0.381700	0.319800
H341	H34	0.285800	0.411200	0.283900
N71	N7	0.946300	0.010100	0.355550
N81	N8	0.006700	0.042300	0.316310
N91	N9	0.942900	0.147100	0.360480
N101	N10	0.922800	0.229100	0.380300
H351	H35	0.903500	0.258600	0.348300
H361	H36	0.968800	0.253900	0.395300
N111	N11	0.523300	0.311300	0.491750
N121	N12	0.379900	0.373500	0.412760
C491	C49	0.754200	0.962900	0.785800
H371	H37	0.759500	0.992600	0.822600
C501	C50	0.687400	0.907000	0.780300
H381	H38	0.649000	0.901100	0.812400
C511	C51	0.678200	0.860100	0.726800
C521	C52	0.736400	0.876300	0.680300
H391	H39	0.732100	0.848400	0.642700
C531	C53	0.800700	0.933700	0.689900
H401	H40	0.838900	0.942600	0.658000
C541	C54	0.612100	0.793600	0.720600
C551	C55	0.541000	0.794200	0.757400
H411	H41	0.533100	0.837500	0.785800
C561	C56	0.481500	0.731100	0.752400
H421	H42	0.433000	0.733200	0.776400
C571	C57	0.493600	0.665000	0.712100
H431	H43	0.453700	0.622200	0.709300
C581	C58	0.565800	0.662200	0.675500
C591	C59	0.624200	0.726400	0.680000
H441	H44	0.672400	0.724800	0.655600
C601	C60	0.574000	0.592000	0.631710
C611	C61	0.624800	0.495800	0.569760
C621	C62	0.686800	0.440400	0.539240
C631	C63	0.717700	0.456700	0.480000
H451	H45	0.700000	0.504100	0.458300
C641	C64	0.774600	0.401600	0.454100
H461	H46	0.793800	0.411200	0.414100
C651	C65	0.803800	0.332400	0.486300
H471	H47	0.843100	0.296500	0.468200
C661	C66	0.774600	0.316100	0.546000
C671	C67	0.715900	0.370400	0.571400
H481	H48	0.695300	0.359800	0.610900
C681	C68	0.806600	0.243700	0.583500
C691	C69	0.763000	0.216300	0.635500
H491	H49	0.710100	0.238300	0.644600
C701	C70	0.798000	0.157200	0.673000
H501	H50	0.768100	0.141200	0.708000
C711	C71	0.911700	0.141200	0.609800
H511	H51	0.961300	0.113500	0.599400
C721	C72	0.881700	0.201500	0.569800
H521	H52	0.911200	0.214200	0.533900
N131	N13	0.510100	0.553700	0.605550
N141	N14	0.542300	0.493300	0.566310
N151	N15	0.647100	0.557100	0.610480
N161	N16	0.729100	0.577200	0.630300
H531	H53	0.758600	0.596500	0.598300
H541	H54	0.753900	0.531200	0.645300
N171	N17	0.811300	0.976700	0.741750
N181	N18	0.873500	0.120100	0.662760
C731	C73	0.245800	0.037100	0.285800
H551	H55	0.240500	0.007400	0.322600
C741	C74	0.312600	0.093000	0.280300
H561	H56	0.351000	0.098900	0.312400
C751	C75	0.321800	0.139900	0.226800
C761	C76	0.263600	0.123700	0.180300
H571	H57	0.267900	0.151600	0.142700
C771	C77	0.199300	0.066300	0.189900
H581	H58	0.161100	0.057400	0.158000
C781	C78	0.387900	0.206400	0.220600
C791	C79	0.459000	0.205800	0.257400
H591	H59	0.466900	0.162500	0.285800
C801	C80	0.518500	0.268900	0.252400
H601	H60	0.567000	0.266800	0.276400
C811	C81	0.506400	0.335000	0.212100
H611	H61	0.546300	0.377800	0.209300
C821	C82	0.434200	0.337800	0.175500
C831	C83	0.375800	0.273600	0.180000
H621	H62	0.327600	0.275200	0.155600
C841	C84	0.426000	0.408000	0.131710
C851	C85	0.375200	0.504200	0.069760
C861	C86	0.313200	0.559600	0.039240
C871	C87	0.282300	0.543300	0.980000
H631	H63	0.300000	0.495900	0.958300
C881	C88	0.225400	0.598400	0.954100
H641	H64	0.206200	0.588800	0.914100
C891	C89	0.196200	0.667600	0.986300
H651	H65	0.156900	0.703500	0.968200
C901	C90	0.225400	0.683900	0.046000
C911	C91	0.284100	0.629600	0.071400
H661	H66	0.304700	0.640200	0.110900
C921	C92	0.193400	0.756300	0.083500
C931	C93	0.237000	0.783700	0.135500
H671	H67	0.289900	0.761700	0.144600
C941	C94	0.202000	0.842800	0.173000
H681	H68	0.231900	0.858800	0.208000
C951	C95	0.088300	0.858800	0.109800
H691	H69	0.038700	0.886500	0.099400
C961	C96	0.118300	0.798500	0.069800
H701	H70	0.088800	0.785800	0.033900
N191	N19	0.489900	0.446300	0.105550
N201	N20	0.457700	0.506700	0.066310
N211	N21	0.352900	0.442900	0.110480
N221	N22	0.270900	0.422800	0.130300
H711	H71	0.241400	0.403500	0.098300
H721	H72	0.246100	0.468800	0.145300
N231	N23	0.188700	0.023300	0.241750
N241	N24	0.126500	0.879900	0.162760
C971	C97	0.037100	0.245800	0.714200
H731	H73	0.007400	0.240500	0.677400
C981	C98	0.093000	0.312600	0.719700
H741	H74	0.098900	0.351000	0.687600
C991	C99	0.139900	0.321800	0.773200
C1001	C100	0.123700	0.263600	0.819700
H751	H75	0.151600	0.267900	0.857300
C1011	C101	0.066300	0.199300	0.810100
H761	H76	0.057400	0.161100	0.842000
C1021	C102	0.206400	0.387900	0.779400
C1031	C103	0.205800	0.459000	0.742600
H771	H77	0.162500	0.466900	0.714200
C1041	C104	0.268900	0.518500	0.747600
H781	H78	0.266800	0.567000	0.723600
C1051	C105	0.335000	0.506400	0.787900
H791	H79	0.377800	0.546300	0.790700
C1061	C106	0.337800	0.434200	0.824500
C1071	C107	0.273600	0.375800	0.820000
H801	H80	0.275200	0.327600	0.844400
C1081	C108	0.408000	0.426000	0.868290
C1091	C109	0.504200	0.375200	0.930240
C1101	C110	0.559600	0.313200	0.960760
C1111	C111	0.543300	0.282300	0.020000
H811	H81	0.495900	0.300000	0.041700
C1121	C112	0.598400	0.225400	0.045900
H821	H82	0.588800	0.206200	0.085900
C1131	C113	0.667600	0.196200	0.013700
H831	H83	0.703500	0.156900	0.031800
C1141	C114	0.683900	0.225400	0.954000
C1151	C115	0.629600	0.284100	0.928600
H841	H84	0.640200	0.304700	0.889100
C1161	C116	0.756300	0.193400	0.916500
C1171	C117	0.783700	0.237000	0.864500
H851	H85	0.761700	0.289900	0.855400
C1181	C118	0.842800	0.202000	0.827000
H861	H86	0.858800	0.231900	0.792000
C1191	C119	0.858800	0.088300	0.890200
H871	H87	0.886500	0.038700	0.900600
C1201	C120	0.798500	0.118300	0.930200
H881	H88	0.785800	0.088800	0.966100
N251	N25	0.446300	0.489900	0.894450
N261	N26	0.506700	0.457700	0.933690
N271	N27	0.442900	0.352900	0.889520
N281	N28	0.422800	0.270900	0.869700
H891	H89	0.403500	0.241400	0.901700
H901	H90	0.468800	0.246100	0.854700
N291	N29	0.023300	0.188700	0.758250
N301	N30	0.879900	0.126500	0.837240
C1211	C121	0.962900	0.754200	0.214200
H911	H91	0.992600	0.759500	0.177400
C1221	C122	0.907000	0.687400	0.219700
H921	H92	0.901100	0.649000	0.187600
C1231	C123	0.860100	0.678200	0.273200
C1241	C124	0.876300	0.736400	0.319700
H931	H93	0.848400	0.732100	0.357300
C1251	C125	0.933700	0.800700	0.310100
H941	H94	0.942600	0.838900	0.342000
C1261	C126	0.793600	0.612100	0.279400
C1271	C127	0.794200	0.541000	0.242600
H951	H95	0.837500	0.533100	0.214200
C1281	C128	0.731100	0.481500	0.247600
H961	H96	0.733200	0.433000	0.223600
C1291	C129	0.665000	0.493600	0.287900
H971	H97	0.622200	0.453700	0.290700
C1301	C130	0.662200	0.565800	0.324500
C1311	C131	0.726400	0.624200	0.320000
H981	H98	0.724800	0.672400	0.344400
C1321	C132	0.592000	0.574000	0.368290
C1331	C133	0.495800	0.624800	0.430240
C1341	C134	0.440400	0.686800	0.460760
C1351	C135	0.456700	0.717700	0.520000
H991	H99	0.504100	0.700000	0.541700
C1361	C136	0.401600	0.774600	0.545900
H1001	H100	0.411200	0.793800	0.585900
C1371	C137	0.332400	0.803800	0.513700
H1011	H101	0.296500	0.843100	0.531800
C1381	C138	0.316100	0.774600	0.454000
C1391	C139	0.370400	0.715900	0.428600
H1021	H102	0.359800	0.695300	0.389100
C1401	C140	0.243700	0.806600	0.416500
C1411	C141	0.216300	0.763000	0.364500
H1031	H103	0.238300	0.710100	0.355400
C1421	C142	0.157200	0.798000	0.327000
H1041	H104	0.141200	0.768100	0.292000
C1431	C143	0.141200	0.911700	0.390200
H1051	H105	0.113500	0.961300	0.400600
C1441	C144	0.201500	0.881700	0.430200
H1061	H106	0.214200	0.911200	0.466100
N311	N31	0.553700	0.510100	0.394450
N321	N32	0.493300	0.542300	0.433690
N331	N33	0.557100	0.647100	0.389520
N341	N34	0.577200	0.729100	0.369700
H1071	H107	0.596500	0.758600	0.401700
H1081	H108	0.531200	0.753900	0.354700
N351	N35	0.976700	0.811300	0.258250
N361	N36	0.120100	0.873500	0.337240
C1451	C145	0.745800	0.462900	0.964200
H1091	H109	0.740500	0.492600	0.927400
C1461	C146	0.812600	0.407000	0.969700
H1101	H110	0.851000	0.401100	0.937600
C1471	C147	0.821800	0.360100	0.023200
C1481	C148	0.763600	0.376300	0.069700
H1111	H111	0.767900	0.348400	0.107300
C1491	C149	0.699300	0.433700	0.060100
H1121	H112	0.661100	0.442600	0.092000
C1501	C150	0.887900	0.293600	0.029400
C1511	C151	0.959000	0.294200	0.992600
H1131	H113	0.966900	0.337500	0.964200
C1521	C152	0.018500	0.231100	0.997600
H1141	H114	0.067000	0.233200	0.973600
C1531	C153	0.006400	0.165000	0.037900
H1151	H115	0.046300	0.122200	0.040700
C1541	C154	0.934200	0.162200	0.074500
C1551	C155	0.875800	0.226400	0.070000
H1161	H116	0.827600	0.224800	0.094400
C1561	C156	0.926000	0.092000	0.118290
C1571	C157	0.875200	0.995800	0.180240
C1581	C158	0.813200	0.940400	0.210760
C1591	C159	0.782300	0.956700	0.270000
H1171	H117	0.800000	0.004100	0.291700
C1601	C160	0.725400	0.901600	0.295900
H1181	H118	0.706200	0.911200	0.335900
C1611	C161	0.696200	0.832400	0.263700
H1191	H119	0.656900	0.796500	0.281800
C1621	C162	0.725400	0.816100	0.204000
C1631	C163	0.784100	0.870400	0.178600
H1201	H120	0.804700	0.859800	0.139100
C1641	C164	0.693400	0.743700	0.166500
C1651	C165	0.737000	0.716300	0.114500
H1211	H121	0.789900	0.738300	0.105400
C1661	C166	0.702000	0.657200	0.077000
H1221	H122	0.731900	0.641200	0.042000
C1671	C167	0.588300	0.641200	0.140200
H1231	H123	0.538700	0.613500	0.150600
C1681	C168	0.618300	0.701500	0.180200
H1241	H124	0.588800	0.714200	0.216100
N371	N37	0.989900	0.053700	0.144450
N381	N38	0.957700	0.993300	0.183690
N391	N39	0.852900	0.057100	0.139520
N401	N40	0.770900	0.077200	0.119700
H1251	H125	0.741400	0.096500	0.151700
H1261	H126	0.746100	0.031200	0.104700
N411	N41	0.688700	0.476700	0.008250
N421	N42	0.626500	0.620100	0.087240
C1691	C169	0.254200	0.537100	0.464200
H1271	H127	0.259500	0.507400	0.427400
C1701	C170	0.187400	0.593000	0.469700
H1281	H128	0.149000	0.598900	0.437600
C1711	C171	0.178200	0.639900	0.523200
C1721	C172	0.236400	0.623700	0.569700
H1291	H129	0.232100	0.651600	0.607300
C1731	C173	0.300700	0.566300	0.560100
H1301	H130	0.338900	0.557400	0.592000
C1741	C174	0.112100	0.706400	0.529400
C1751	C175	0.041000	0.705800	0.492600
H1311	H131	0.033100	0.662500	0.464200
C1761	C176	0.981500	0.768900	0.497600
H1321	H132	0.933000	0.766800	0.473600
C1771	C177	0.993600	0.835000	0.537900
H1331	H133	0.953700	0.877800	0.540700
C1781	C178	0.065800	0.837800	0.574500
C1791	C179	0.124200	0.773600	0.570000
H1341	H134	0.172400	0.775200	0.594400
C1801	C180	0.074000	0.908000	0.618290
C1811	C181	0.124800	0.004200	0.680240
C1821	C182	0.186800	0.059600	0.710760
C1831	C183	0.217700	0.043300	0.770000
H1351	H135	0.200000	0.995900	0.791700
C1841	C184	0.274600	0.098400	0.795900
H1361	H136	0.293800	0.088800	0.835900
C1851	C185	0.303800	0.167600	0.763700
H1371	H137	0.343100	0.203500	0.781800
C1861	C186	0.274600	0.183900	0.704000
C1871	C187	0.215900	0.129600	0.678600
H1381	H138	0.195300	0.140200	0.639100
C1881	C188	0.306600	0.256300	0.666500
C1891	C189	0.263000	0.283700	0.614500
H1391	H139	0.210100	0.261700	0.605400
C1901	C190	0.298000	0.342800	0.577000
H1401	H140	0.268100	0.358800	0.542000
C1911	C191	0.411700	0.358800	0.640200
H1411	H141	0.461300	0.386500	0.650600
C1921	C192	0.381700	0.298500	0.680200
H1421	H142	0.411200	0.285800	0.716100
N431	N43	0.010100	0.946300	0.644450
N441	N44	0.042300	0.006700	0.683690
N451	N45	0.147100	0.942900	0.639520
N461	N46	0.229100	0.922800	0.619700
H1431	H143	0.258600	0.903500	0.651700
H1441	H144	0.253900	0.968800	0.604700
N471	N47	0.311300	0.523300	0.508250
N481	N48	0.373500	0.379900	0.587240
Cd11	Cd1	0.940140	0.059860	0.750000
Cd21	Cd2	0.059860	0.940140	0.250000
Cd31	Cd3	0.440140	0.440140	0.500000
Cd41	Cd4	0.559860	0.559860	0.000000
