data_WUNTAB_charged_PM
_symmetry_space_group_name_H-M	'P1'
_cell_length_a	15.826700
_cell_length_b	15.826700
_cell_length_c	21.778000
_cell_angle_alpha	90.000000
_cell_angle_beta	90.000000
_cell_angle_gamma	90.000000
_symmetry_Int_Tables_number 1

loop_
_symmetry_equiv_pos_as_xyz
'x,y,z'

loop_
_atom_site_label
_atom_site_type_symbol
_atom_site_fract_x
_atom_site_fract_y
_atom_site_fract_z
Cd11	Cd1	0.060120	0.939880	0.250000
Cd21	Cd2	0.939880	0.060120	0.750000
Cd31	Cd3	0.560120	0.560120	0.500000
Cd41	Cd4	0.439880	0.439880	0.000000
H11	H1	0.359300	0.268700	0.042400
H21	H2	0.263300	0.209400	0.106500
H31	H3	0.286100	0.413000	0.215000
H41	H4	0.385300	0.463800	0.148400
H51	H5	0.205800	0.342800	0.282100
H61	H6	0.091700	0.291900	0.336300
H71	H7	0.998100	0.198600	0.291900
H81	H8	0.140000	0.196200	0.139600
H91	H9	0.879200	0.953900	0.042300
H101	H10	0.767600	0.931300	0.977200
H111	H11	0.661200	0.029900	0.969200
H121	H12	0.775500	0.171800	0.097100
H131	H13	0.597200	0.146200	0.941000
H141	H14	0.505500	0.257500	0.929900
H151	H15	0.558000	0.340000	0.092300
H161	H16	0.651600	0.232600	0.108400
H171	H17	0.973900	0.241500	0.102300
H181	H18	0.903000	0.256200	0.153800
H191	H19	0.640700	0.731300	0.542400
H201	H20	0.736700	0.790600	0.606500
H211	H21	0.713900	0.587000	0.715000
H221	H22	0.614700	0.536200	0.648400
H231	H23	0.794200	0.657200	0.782100
H241	H24	0.908300	0.708100	0.836300
H251	H25	0.001900	0.801400	0.791900
H261	H26	0.860000	0.803800	0.639600
H271	H27	0.120800	0.046100	0.542300
H281	H28	0.232400	0.068700	0.477200
H291	H29	0.338800	0.970100	0.469200
H301	H30	0.224500	0.828200	0.597100
H311	H31	0.402800	0.853800	0.441000
H321	H32	0.494500	0.742500	0.429900
H331	H33	0.442000	0.660000	0.592300
H341	H34	0.348400	0.767400	0.608400
H351	H35	0.026100	0.758500	0.602300
H361	H36	0.097000	0.743800	0.653800
H371	H37	0.231300	0.859300	0.292400
H381	H38	0.290600	0.763300	0.356500
H391	H39	0.087000	0.786100	0.465000
H401	H40	0.036200	0.885300	0.398400
H411	H41	0.157200	0.705800	0.532100
H421	H42	0.208100	0.591700	0.586300
H431	H43	0.301400	0.498100	0.541900
H441	H44	0.303800	0.640000	0.389600
H451	H45	0.546100	0.379200	0.292300
H461	H46	0.568700	0.267600	0.227200
H471	H47	0.470100	0.161200	0.219200
H481	H48	0.328200	0.275500	0.347100
H491	H49	0.353800	0.097200	0.191000
H501	H50	0.242500	0.005500	0.179900
H511	H51	0.160000	0.058000	0.342300
H521	H52	0.267400	0.151600	0.358400
H531	H53	0.258500	0.473900	0.352300
H541	H54	0.243800	0.403000	0.403800
H551	H55	0.768700	0.140700	0.792400
H561	H56	0.709400	0.236700	0.856500
H571	H57	0.913000	0.213900	0.965000
H581	H58	0.963800	0.114700	0.898400
H591	H59	0.842800	0.294200	0.032100
H601	H60	0.791900	0.408300	0.086300
H611	H61	0.698600	0.501900	0.041900
H621	H62	0.696200	0.360000	0.889600
H631	H63	0.453900	0.620800	0.792300
H641	H64	0.431300	0.732400	0.727200
H651	H65	0.529900	0.838800	0.719200
H661	H66	0.671800	0.724500	0.847100
H671	H67	0.646200	0.902800	0.691000
H681	H68	0.757500	0.994500	0.679900
H691	H69	0.840000	0.942000	0.842300
H701	H70	0.732600	0.848400	0.858400
H711	H71	0.741500	0.526100	0.852300
H721	H72	0.756200	0.597000	0.903800
H731	H73	0.140700	0.768700	0.207600
H741	H74	0.236700	0.709400	0.143500
H751	H75	0.213900	0.913000	0.035000
H761	H76	0.114700	0.963800	0.101600
H771	H77	0.294200	0.842800	0.967900
H781	H78	0.408300	0.791900	0.913700
H791	H79	0.501900	0.698600	0.958100
H801	H80	0.360000	0.696200	0.110400
H811	H81	0.620800	0.453900	0.207700
H821	H82	0.732400	0.431300	0.272800
H831	H83	0.838800	0.529900	0.280800
H841	H84	0.724500	0.671800	0.152900
H851	H85	0.902800	0.646200	0.309000
H861	H86	0.994500	0.757500	0.320100
H871	H87	0.942000	0.840000	0.157700
H881	H88	0.848400	0.732600	0.141600
H891	H89	0.526100	0.741500	0.147700
H901	H90	0.597000	0.756200	0.096200
H911	H91	0.859300	0.231300	0.707600
H921	H92	0.763300	0.290600	0.643500
H931	H93	0.786100	0.087000	0.535000
H941	H94	0.885300	0.036200	0.601600
H951	H95	0.705800	0.157200	0.467900
H961	H96	0.591700	0.208100	0.413700
H971	H97	0.498100	0.301400	0.458100
H981	H98	0.640000	0.303800	0.610400
H991	H99	0.379200	0.546100	0.707700
H1001	H100	0.267600	0.568700	0.772800
H1011	H101	0.161200	0.470100	0.780800
H1021	H102	0.275500	0.328200	0.652900
H1031	H103	0.097200	0.353800	0.809000
H1041	H104	0.005500	0.242500	0.820100
H1051	H105	0.058000	0.160000	0.657700
H1061	H106	0.151600	0.267400	0.641600
H1071	H107	0.473900	0.258500	0.647700
H1081	H108	0.403000	0.243800	0.596200
H1091	H109	0.268700	0.359300	0.957600
H1101	H110	0.209400	0.263300	0.893500
H1111	H111	0.413000	0.286100	0.785000
H1121	H112	0.463800	0.385300	0.851600
H1131	H113	0.342800	0.205800	0.717900
H1141	H114	0.291900	0.091700	0.663700
H1151	H115	0.198600	0.998100	0.708100
H1161	H116	0.196200	0.140000	0.860400
H1171	H117	0.953900	0.879200	0.957700
H1181	H118	0.931300	0.767600	0.022800
H1191	H119	0.029900	0.661200	0.030800
H1201	H120	0.171800	0.775500	0.902900
H1211	H121	0.146200	0.597200	0.059000
H1221	H122	0.257500	0.505500	0.070100
H1231	H123	0.340000	0.558000	0.907700
H1241	H124	0.232600	0.651600	0.891600
H1251	H125	0.241500	0.973900	0.897700
H1261	H126	0.256200	0.903000	0.846200
H1271	H127	0.731300	0.640700	0.457600
H1281	H128	0.790600	0.736700	0.393500
H1291	H129	0.587000	0.713900	0.285000
H1301	H130	0.536200	0.614700	0.351600
H1311	H131	0.657200	0.794200	0.217900
H1321	H132	0.708100	0.908300	0.163700
H1331	H133	0.801400	0.001900	0.208100
H1341	H134	0.803800	0.860000	0.360400
H1351	H135	0.046100	0.120800	0.457700
H1361	H136	0.068700	0.232400	0.522800
H1371	H137	0.970100	0.338800	0.530800
H1381	H138	0.828200	0.224500	0.402900
H1391	H139	0.853800	0.402800	0.559000
H1401	H140	0.742500	0.494500	0.570100
H1411	H141	0.660000	0.442000	0.407700
H1421	H142	0.767400	0.348400	0.391600
H1431	H143	0.758500	0.026100	0.397700
H1441	H144	0.743800	0.097000	0.346200
C11	C1	0.343200	0.298800	0.077220
C21	C2	0.284700	0.262800	0.115240
C31	C3	0.257300	0.306200	0.166850
C41	C4	0.298800	0.382900	0.179440
C51	C5	0.358200	0.413400	0.138890
C61	C6	0.185800	0.275100	0.204260
C71	C7	0.169900	0.303500	0.264000
C81	C8	0.100800	0.273500	0.296300
C91	C9	0.045400	0.216700	0.270300
C101	C10	0.061100	0.186800	0.211100
C111	C11	0.130100	0.216200	0.179160
C121	C12	0.004800	0.125100	0.181130
C131	C13	0.909200	0.074600	0.119180
C141	C14	0.838600	0.066300	0.075620
C151	C15	0.835900	0.993400	0.039700
C161	C16	0.769700	0.980200	0.000800
C171	C17	0.705700	0.039200	0.996300
C181	C18	0.706900	0.112100	0.031500
C191	C19	0.774300	0.124100	0.072210
C201	C20	0.639000	0.178200	0.024690
C211	C21	0.591900	0.185800	0.972300
C221	C22	0.535900	0.252900	0.966200
C231	C23	0.566600	0.301100	0.060940
C241	C24	0.623700	0.236800	0.070990
C251	C25	0.656800	0.701200	0.577220
C261	C26	0.715300	0.737200	0.615240
C271	C27	0.742700	0.693800	0.666850
C281	C28	0.701200	0.617100	0.679440
C291	C29	0.641800	0.586600	0.638890
C301	C30	0.814200	0.724900	0.704260
C311	C31	0.830100	0.696500	0.764000
C321	C32	0.899200	0.726500	0.796300
C331	C33	0.954600	0.783300	0.770300
C341	C34	0.938900	0.813200	0.711100
C351	C35	0.869900	0.783800	0.679160
C361	C36	0.995200	0.874900	0.681130
C371	C37	0.090800	0.925400	0.619180
C381	C38	0.161400	0.933700	0.575620
C391	C39	0.164100	0.006600	0.539700
C401	C40	0.230300	0.019800	0.500800
C411	C41	0.294300	0.960800	0.496300
C421	C42	0.293100	0.887900	0.531500
C431	C43	0.225700	0.875900	0.572210
C441	C44	0.361000	0.821800	0.524690
C451	C45	0.408100	0.814200	0.472300
C461	C46	0.464100	0.747100	0.466200
C471	C47	0.433400	0.698900	0.560940
C481	C48	0.376300	0.763200	0.570990
C491	C49	0.201200	0.843200	0.327220
C501	C50	0.237200	0.784700	0.365240
C511	C51	0.193800	0.757300	0.416850
C521	C52	0.117100	0.798800	0.429440
C531	C53	0.086600	0.858200	0.388890
C541	C54	0.224900	0.685800	0.454260
C551	C55	0.196500	0.669900	0.514000
C561	C56	0.226500	0.600800	0.546300
C571	C57	0.283300	0.545400	0.520300
C581	C58	0.313200	0.561100	0.461100
C591	C59	0.283800	0.630100	0.429160
C601	C60	0.374900	0.504800	0.431130
C611	C61	0.425400	0.409200	0.369180
C621	C62	0.433700	0.338600	0.325620
C631	C63	0.506600	0.335900	0.289700
C641	C64	0.519800	0.269700	0.250800
C651	C65	0.460800	0.205700	0.246300
C661	C66	0.387900	0.206900	0.281500
C671	C67	0.375900	0.274300	0.322210
C681	C68	0.321800	0.139000	0.274690
C691	C69	0.314200	0.091900	0.222300
C701	C70	0.247100	0.035900	0.216200
C711	C71	0.198900	0.066600	0.310940
C721	C72	0.263200	0.123700	0.320990
C731	C73	0.798800	0.156800	0.827220
C741	C74	0.762800	0.215300	0.865240
C751	C75	0.806200	0.242700	0.916850
C761	C76	0.882900	0.201200	0.929440
C771	C77	0.913400	0.141800	0.888890
C781	C78	0.775100	0.314200	0.954260
C791	C79	0.803500	0.330100	0.014000
C801	C80	0.773500	0.399200	0.046300
C811	C81	0.716700	0.454600	0.020300
C821	C82	0.686800	0.438900	0.961100
C831	C83	0.716200	0.369900	0.929160
C841	C84	0.625100	0.495200	0.931130
C851	C85	0.574600	0.590800	0.869180
C861	C86	0.566300	0.661400	0.825620
C871	C87	0.493400	0.664100	0.789700
C881	C88	0.480200	0.730300	0.750800
C891	C89	0.539200	0.794300	0.746300
C901	C90	0.612100	0.793100	0.781500
C911	C91	0.624100	0.725700	0.822210
C921	C92	0.678200	0.861000	0.774690
C931	C93	0.685800	0.908100	0.722300
C941	C94	0.752900	0.964100	0.716200
C951	C95	0.801100	0.933400	0.810940
C961	C96	0.736800	0.876300	0.820990
C971	C97	0.156800	0.798800	0.172780
C981	C98	0.215300	0.762800	0.134760
C991	C99	0.242700	0.806200	0.083150
C1001	C100	0.201200	0.882900	0.070560
C1011	C101	0.141800	0.913400	0.111110
C1021	C102	0.314200	0.775100	0.045740
C1031	C103	0.330100	0.803500	0.986000
C1041	C104	0.399200	0.773500	0.953700
C1051	C105	0.454600	0.716700	0.979700
C1061	C106	0.438900	0.686800	0.038900
C1071	C107	0.369900	0.716200	0.070840
C1081	C108	0.495200	0.625100	0.068870
C1091	C109	0.590800	0.574600	0.130820
C1101	C110	0.661400	0.566300	0.174380
C1111	C111	0.664100	0.493400	0.210300
C1121	C112	0.730300	0.480200	0.249200
C1131	C113	0.794300	0.539200	0.253700
C1141	C114	0.793100	0.612100	0.218500
C1151	C115	0.725700	0.624100	0.177790
C1161	C116	0.861000	0.678200	0.225310
C1171	C117	0.908100	0.685800	0.277700
C1181	C118	0.964100	0.752900	0.283800
C1191	C119	0.933400	0.801100	0.189060
C1201	C120	0.876300	0.736800	0.179010
C1211	C121	0.843200	0.201200	0.672780
C1221	C122	0.784700	0.237200	0.634760
C1231	C123	0.757300	0.193800	0.583150
C1241	C124	0.798800	0.117100	0.570560
C1251	C125	0.858200	0.086600	0.611110
C1261	C126	0.685800	0.224900	0.545740
C1271	C127	0.669900	0.196500	0.486000
C1281	C128	0.600800	0.226500	0.453700
C1291	C129	0.545400	0.283300	0.479700
C1301	C130	0.561100	0.313200	0.538900
C1311	C131	0.630100	0.283800	0.570840
C1321	C132	0.504800	0.374900	0.568870
C1331	C133	0.409200	0.425400	0.630820
C1341	C134	0.338600	0.433700	0.674380
C1351	C135	0.335900	0.506600	0.710300
C1361	C136	0.269700	0.519800	0.749200
C1371	C137	0.205700	0.460800	0.753700
C1381	C138	0.206900	0.387900	0.718500
C1391	C139	0.274300	0.375900	0.677790
C1401	C140	0.139000	0.321800	0.725310
C1411	C141	0.091900	0.314200	0.777700
C1421	C142	0.035900	0.247100	0.783800
C1431	C143	0.066600	0.198900	0.689060
C1441	C144	0.123700	0.263200	0.679010
C1451	C145	0.298800	0.343200	0.922780
C1461	C146	0.262800	0.284700	0.884760
C1471	C147	0.306200	0.257300	0.833150
C1481	C148	0.382900	0.298800	0.820560
C1491	C149	0.413400	0.358200	0.861110
C1501	C150	0.275100	0.185800	0.795740
C1511	C151	0.303500	0.169900	0.736000
C1521	C152	0.273500	0.100800	0.703700
C1531	C153	0.216700	0.045400	0.729700
C1541	C154	0.186800	0.061100	0.788900
C1551	C155	0.216200	0.130100	0.820840
C1561	C156	0.125100	0.004800	0.818870
C1571	C157	0.074600	0.909200	0.880820
C1581	C158	0.066300	0.838600	0.924380
C1591	C159	0.993400	0.835900	0.960300
C1601	C160	0.980200	0.769700	0.999200
C1611	C161	0.039200	0.705700	0.003700
C1621	C162	0.112100	0.706900	0.968500
C1631	C163	0.124100	0.774300	0.927790
C1641	C164	0.178200	0.639000	0.975310
C1651	C165	0.185800	0.591900	0.027700
C1661	C166	0.252900	0.535900	0.033800
C1671	C167	0.301100	0.566600	0.939060
C1681	C168	0.236800	0.623700	0.929010
C1691	C169	0.701200	0.656800	0.422780
C1701	C170	0.737200	0.715300	0.384760
C1711	C171	0.693800	0.742700	0.333150
C1721	C172	0.617100	0.701200	0.320560
C1731	C173	0.586600	0.641800	0.361110
C1741	C174	0.724900	0.814200	0.295740
C1751	C175	0.696500	0.830100	0.236000
C1761	C176	0.726500	0.899200	0.203700
C1771	C177	0.783300	0.954600	0.229700
C1781	C178	0.813200	0.938900	0.288900
C1791	C179	0.783800	0.869900	0.320840
C1801	C180	0.874900	0.995200	0.318870
C1811	C181	0.925400	0.090800	0.380820
C1821	C182	0.933700	0.161400	0.424380
C1831	C183	0.006600	0.164100	0.460300
C1841	C184	0.019800	0.230300	0.499200
C1851	C185	0.960800	0.294300	0.503700
C1861	C186	0.887900	0.293100	0.468500
C1871	C187	0.875900	0.225700	0.427790
C1881	C188	0.821800	0.361000	0.475310
C1891	C189	0.814200	0.408100	0.527700
C1901	C190	0.747100	0.464100	0.533800
C1911	C191	0.698900	0.433400	0.439060
C1921	C192	0.763200	0.376300	0.429010
N11	N1	0.946600	0.010690	0.145390
N21	N2	0.007440	0.042920	0.184340
N31	N3	0.943800	0.147480	0.140050
N41	N4	0.924100	0.230200	0.120140
N51	N5	0.523200	0.311000	0.009350
N61	N6	0.379100	0.374200	0.086630
N71	N7	0.053400	0.989310	0.645390
N81	N8	0.992560	0.957080	0.684340
N91	N9	0.056200	0.852520	0.640050
N101	N10	0.075900	0.769800	0.620140
N111	N11	0.476800	0.689000	0.509350
N121	N12	0.620900	0.625800	0.586630
N131	N13	0.489310	0.446600	0.395390
N141	N14	0.457080	0.507440	0.434340
N151	N15	0.352520	0.443800	0.390050
N161	N16	0.269800	0.424100	0.370140
N171	N17	0.189000	0.023200	0.259350
N181	N18	0.125800	0.879100	0.336630
N191	N19	0.510690	0.553400	0.895390
N201	N20	0.542920	0.492560	0.934340
N211	N21	0.647480	0.556200	0.890050
N221	N22	0.730200	0.575900	0.870140
N231	N23	0.811000	0.976800	0.759350
N241	N24	0.874200	0.120900	0.836630
N251	N25	0.553400	0.510690	0.104610
N261	N26	0.492560	0.542920	0.065660
N271	N27	0.556200	0.647480	0.109950
N281	N28	0.575900	0.730200	0.129860
N291	N29	0.976800	0.811000	0.240650
N301	N30	0.120900	0.874200	0.163370
N311	N31	0.446600	0.489310	0.604610
N321	N32	0.507440	0.457080	0.565660
N331	N33	0.443800	0.352520	0.609950
N341	N34	0.424100	0.269800	0.629860
N351	N35	0.023200	0.189000	0.740650
N361	N36	0.879100	0.125800	0.663370
N371	N37	0.010690	0.946600	0.854610
N381	N38	0.042920	0.007440	0.815660
N391	N39	0.147480	0.943800	0.859950
N401	N40	0.230200	0.924100	0.879860
N411	N41	0.311000	0.523200	0.990650
N421	N42	0.374200	0.379100	0.913370
N431	N43	0.989310	0.053400	0.354610
N441	N44	0.957080	0.992560	0.315660
N451	N45	0.852520	0.056200	0.359950
N461	N46	0.769800	0.075900	0.379860
N471	N47	0.689000	0.476800	0.490650
N481	N48	0.625800	0.620900	0.413370
Cl11	Cl1	0.127130	0.127130	0.000000
O11	O1	0.117900	0.084100	0.946500
O21	O2	0.105800	0.213500	0.010000
O31	O3	0.084100	0.117900	0.053500
O41	O4	0.213500	0.105800	0.990000
Cl21	Cl2	0.872870	0.872870	0.500000
O51	O5	0.882100	0.915900	0.446500
O61	O6	0.894200	0.786500	0.510000
O71	O7	0.915900	0.882100	0.553500
O81	O8	0.786500	0.894200	0.490000
Cl31	Cl3	0.372870	0.627130	0.250000
O91	O9	0.415900	0.617900	0.196500
O101	O10	0.286500	0.605800	0.260000
O111	O11	0.382100	0.584100	0.303500
O121	O12	0.394200	0.713500	0.240000
Cl41	Cl4	0.627130	0.372870	0.750000
O131	O13	0.584100	0.382100	0.696500
O141	O14	0.713500	0.394200	0.760000
O151	O15	0.617900	0.415900	0.803500
O161	O16	0.605800	0.286500	0.740000
