data_WUNTUV_clean_PM
_symmetry_space_group_name_H-M	'P1'
_cell_length_a	15.877400
_cell_length_b	15.877400
_cell_length_c	21.474000
_cell_angle_alpha	90.000000
_cell_angle_beta	90.000000
_cell_angle_gamma	90.000000
_symmetry_Int_Tables_number 1

loop_
_symmetry_equiv_pos_as_xyz
'x,y,z'

loop_
_atom_site_label
_atom_site_type_symbol
_atom_site_fract_x
_atom_site_fract_y
_atom_site_fract_z
C11	C1	0.038100	0.243600	0.713100
H11	H1	0.008000	0.237800	0.675100
C21	C2	0.093900	0.310100	0.718600
H21	H2	0.100400	0.349000	0.685300
C31	C3	0.139900	0.320000	0.772400
C41	C4	0.124600	0.262600	0.819600
H31	H3	0.153100	0.267600	0.858300
C51	C5	0.067600	0.197900	0.810100
H41	H4	0.058900	0.158700	0.843000
C61	C6	0.206600	0.386400	0.778900
C71	C7	0.204300	0.459700	0.742300
H51	H5	0.159100	0.468500	0.714100
C81	C8	0.267200	0.518700	0.747300
H61	H6	0.264900	0.568200	0.722500
C91	C9	0.334000	0.507000	0.787800
H71	H7	0.376900	0.548400	0.791300
C101	C10	0.337400	0.434000	0.823300
C111	C11	0.273400	0.375400	0.819400
H81	H8	0.275200	0.326700	0.845000
C121	C12	0.407400	0.425800	0.867200
C131	C13	0.503800	0.374700	0.930200
C141	C14	0.559200	0.312400	0.960400
C151	C15	0.540800	0.281000	0.019400
H91	H9	0.492200	0.299200	0.041400
C161	C16	0.595600	0.222400	0.045300
H101	H10	0.585500	0.202300	0.086300
C171	C17	0.663900	0.192900	0.013100
H111	H11	0.699400	0.151700	0.031500
C181	C18	0.681800	0.222800	0.953000
C191	C19	0.627600	0.283400	0.928300
H121	H12	0.638700	0.305200	0.887900
C201	C20	0.753900	0.192500	0.916100
C211	C21	0.798200	0.118500	0.930400
H131	H13	0.785800	0.088500	0.967500
C221	C22	0.859700	0.089300	0.890600
H141	H14	0.889200	0.039600	0.902000
C231	C23	0.843300	0.201200	0.826200
H151	H15	0.860600	0.231700	0.790400
C241	C24	0.782400	0.235600	0.863500
H161	H16	0.759300	0.289100	0.853500
N11	N1	0.024100	0.187400	0.757600
N21	N2	0.445300	0.489900	0.894150
N31	N3	0.506500	0.456900	0.933500
N41	N4	0.443000	0.352500	0.888630
N51	N5	0.423500	0.271100	0.867600
H171	H17	0.472100	0.243900	0.857300
H181	H18	0.396800	0.242300	0.898500
N61	N6	0.880000	0.126400	0.837600
C251	C25	0.961900	0.756400	0.213100
H191	H19	0.992000	0.762200	0.175100
C261	C26	0.906100	0.689900	0.218600
H201	H20	0.899600	0.651000	0.185300
C271	C27	0.860100	0.680000	0.272400
C281	C28	0.875400	0.737400	0.319600
H211	H21	0.846900	0.732400	0.358300
C291	C29	0.932400	0.802100	0.310100
H221	H22	0.941100	0.841300	0.343000
C301	C30	0.793400	0.613600	0.278900
C311	C31	0.795700	0.540300	0.242300
H231	H23	0.840900	0.531500	0.214100
C321	C32	0.732800	0.481300	0.247300
H241	H24	0.735100	0.431800	0.222500
C331	C33	0.666000	0.493000	0.287800
H251	H25	0.623100	0.451600	0.291300
C341	C34	0.662600	0.566000	0.323300
C351	C35	0.726600	0.624600	0.319400
H261	H26	0.724800	0.673300	0.345000
C361	C36	0.592600	0.574200	0.367200
C371	C37	0.496200	0.625300	0.430200
C381	C38	0.440800	0.687600	0.460400
C391	C39	0.459200	0.719000	0.519400
H271	H27	0.507800	0.700800	0.541400
C401	C40	0.404400	0.777600	0.545300
H281	H28	0.414500	0.797700	0.586300
C411	C41	0.336100	0.807100	0.513100
H291	H29	0.300600	0.848300	0.531500
C421	C42	0.318200	0.777200	0.453000
C431	C43	0.372400	0.716600	0.428300
H301	H30	0.361300	0.694800	0.387900
C441	C44	0.246100	0.807500	0.416100
C451	C45	0.201800	0.881500	0.430400
H311	H31	0.214200	0.911500	0.467500
C461	C46	0.140300	0.910700	0.390600
H321	H32	0.110800	0.960400	0.402000
C471	C47	0.156700	0.798800	0.326200
H331	H33	0.139400	0.768300	0.290400
C481	C48	0.217600	0.764400	0.363500
H341	H34	0.240700	0.710900	0.353500
N71	N7	0.975900	0.812600	0.257600
N81	N8	0.554700	0.510100	0.394150
N91	N9	0.493500	0.543100	0.433500
N101	N10	0.557000	0.647500	0.388630
N111	N11	0.576500	0.728900	0.367600
H351	H35	0.527900	0.756100	0.357300
H361	H36	0.603200	0.757700	0.398500
N121	N12	0.120000	0.873600	0.337600
C491	C49	0.256400	0.538100	0.463100
H371	H37	0.262200	0.508000	0.425100
C501	C50	0.189900	0.593900	0.468600
H381	H38	0.151000	0.600400	0.435300
C511	C51	0.180000	0.639900	0.522400
C521	C52	0.237400	0.624600	0.569600
H391	H39	0.232400	0.653100	0.608300
C531	C53	0.302100	0.567600	0.560100
H401	H40	0.341300	0.558900	0.593000
C541	C54	0.113600	0.706600	0.528900
C551	C55	0.040300	0.704300	0.492300
H411	H41	0.031500	0.659100	0.464100
C561	C56	0.981300	0.767200	0.497300
H421	H42	0.931800	0.764900	0.472500
C571	C57	0.993000	0.834000	0.537800
H431	H43	0.951600	0.876900	0.541300
C581	C58	0.066000	0.837400	0.573300
C591	C59	0.124600	0.773400	0.569400
H441	H44	0.173300	0.775200	0.595000
C601	C60	0.074200	0.907400	0.617200
C611	C61	0.125300	0.003800	0.680200
C621	C62	0.187600	0.059200	0.710400
C631	C63	0.219000	0.040800	0.769400
H451	H45	0.200800	0.992200	0.791400
C641	C64	0.277600	0.095600	0.795300
H461	H46	0.297700	0.085500	0.836300
C651	C65	0.307100	0.163900	0.763100
H471	H47	0.348300	0.199400	0.781500
C661	C66	0.277200	0.181800	0.703000
C671	C67	0.216600	0.127600	0.678300
H481	H48	0.194800	0.138700	0.637900
C681	C68	0.307500	0.253900	0.666100
C691	C69	0.381500	0.298200	0.680400
H491	H49	0.411500	0.285800	0.717500
C701	C70	0.410700	0.359700	0.640600
H501	H50	0.460400	0.389200	0.652000
C711	C71	0.298800	0.343300	0.576200
H511	H51	0.268300	0.360600	0.540400
C721	C72	0.264400	0.282400	0.613500
H521	H52	0.210900	0.259300	0.603500
N131	N13	0.312600	0.524100	0.507600
N141	N14	0.010100	0.945300	0.644150
N151	N15	0.043100	0.006500	0.683500
N161	N16	0.147500	0.943000	0.638630
N171	N17	0.228900	0.923500	0.617600
H531	H53	0.256100	0.972100	0.607300
H541	H54	0.257700	0.896800	0.648500
N181	N18	0.373600	0.380000	0.587600
C731	C73	0.743600	0.461900	0.963100
H551	H55	0.737800	0.492000	0.925100
C741	C74	0.810100	0.406100	0.968600
H561	H56	0.849000	0.399600	0.935300
C751	C75	0.820000	0.360100	0.022400
C761	C76	0.762600	0.375400	0.069600
H571	H57	0.767600	0.346900	0.108300
C771	C77	0.697900	0.432400	0.060100
H581	H58	0.658700	0.441100	0.093000
C781	C78	0.886400	0.293400	0.028900
C791	C79	0.959700	0.295700	0.992300
H591	H59	0.968500	0.340900	0.964100
C801	C80	0.018700	0.232800	0.997300
H601	H60	0.068200	0.235100	0.972500
C811	C81	0.007000	0.166000	0.037800
H611	H61	0.048400	0.123100	0.041300
C821	C82	0.934000	0.162600	0.073300
C831	C83	0.875400	0.226600	0.069400
H621	H62	0.826700	0.224800	0.095000
C841	C84	0.925800	0.092600	0.117200
C851	C85	0.874700	0.996200	0.180200
C861	C86	0.812400	0.940800	0.210400
C871	C87	0.781000	0.959200	0.269400
H631	H63	0.799200	0.007800	0.291400
C881	C88	0.722400	0.904400	0.295300
H641	H64	0.702300	0.914500	0.336300
C891	C89	0.692900	0.836100	0.263100
H651	H65	0.651700	0.800600	0.281500
C901	C90	0.722800	0.818200	0.203000
C911	C91	0.783400	0.872400	0.178300
H661	H66	0.805200	0.861300	0.137900
C921	C92	0.692500	0.746100	0.166100
C931	C93	0.618500	0.701800	0.180400
H671	H67	0.588500	0.714200	0.217500
C941	C94	0.589300	0.640300	0.140600
H681	H68	0.539600	0.610800	0.152000
C951	C95	0.701200	0.656700	0.076200
H691	H69	0.731700	0.639400	0.040400
C961	C96	0.735600	0.717600	0.113500
H701	H70	0.789100	0.740700	0.103500
N191	N19	0.687400	0.475900	0.007600
N201	N20	0.989900	0.054700	0.144150
N211	N21	0.956900	0.993500	0.183500
N221	N22	0.852500	0.057000	0.138630
N231	N23	0.771100	0.076500	0.117600
H711	H71	0.743900	0.027900	0.107300
H721	H72	0.742300	0.103200	0.148500
N241	N24	0.626400	0.620000	0.087600
C971	C97	0.461900	0.743600	0.036900
H731	H73	0.492000	0.737800	0.074900
C981	C98	0.406100	0.810100	0.031400
H741	H74	0.399600	0.849000	0.064700
C991	C99	0.360100	0.820000	0.977600
C1001	C100	0.375400	0.762600	0.930400
H751	H75	0.346900	0.767600	0.891700
C1011	C101	0.432400	0.697900	0.939900
H761	H76	0.441100	0.658700	0.907000
C1021	C102	0.293400	0.886400	0.971100
C1031	C103	0.295700	0.959700	0.007700
H771	H77	0.340900	0.968500	0.035900
C1041	C104	0.232800	0.018700	0.002700
H781	H78	0.235100	0.068200	0.027500
C1051	C105	0.166000	0.007000	0.962200
H791	H79	0.123100	0.048400	0.958700
C1061	C106	0.162600	0.934000	0.926700
C1071	C107	0.226600	0.875400	0.930600
H801	H80	0.224800	0.826700	0.905000
C1081	C108	0.092600	0.925800	0.882800
C1091	C109	0.996200	0.874700	0.819800
C1101	C110	0.940800	0.812400	0.789600
C1111	C111	0.959200	0.781000	0.730600
H811	H81	0.007800	0.799200	0.708600
C1121	C112	0.904400	0.722400	0.704700
H821	H82	0.914500	0.702300	0.663700
C1131	C113	0.836100	0.692900	0.736900
H831	H83	0.800600	0.651700	0.718500
C1141	C114	0.818200	0.722800	0.797000
C1151	C115	0.872400	0.783400	0.821700
H841	H84	0.861300	0.805200	0.862100
C1161	C116	0.746100	0.692500	0.833900
C1171	C117	0.701800	0.618500	0.819600
H851	H85	0.714200	0.588500	0.782500
C1181	C118	0.640300	0.589300	0.859400
H861	H86	0.610800	0.539600	0.848000
C1191	C119	0.656700	0.701200	0.923800
H871	H87	0.639400	0.731700	0.959600
C1201	C120	0.717600	0.735600	0.886500
H881	H88	0.740700	0.789100	0.896500
N251	N25	0.475900	0.687400	0.992400
N261	N26	0.054700	0.989900	0.855850
N271	N27	0.993500	0.956900	0.816500
N281	N28	0.057000	0.852500	0.861370
N291	N29	0.076500	0.771100	0.882400
H891	H89	0.027900	0.743900	0.892700
H901	H90	0.103200	0.742300	0.851500
N301	N30	0.620000	0.626400	0.912400
C1211	C121	0.538100	0.256400	0.536900
H911	H91	0.508000	0.262200	0.574900
C1221	C122	0.593900	0.189900	0.531400
H921	H92	0.600400	0.151000	0.564700
C1231	C123	0.639900	0.180000	0.477600
C1241	C124	0.624600	0.237400	0.430400
H931	H93	0.653100	0.232400	0.391700
C1251	C125	0.567600	0.302100	0.439900
H941	H94	0.558900	0.341300	0.407000
C1261	C126	0.706600	0.113600	0.471100
C1271	C127	0.704300	0.040300	0.507700
H951	H95	0.659100	0.031500	0.535900
C1281	C128	0.767200	0.981300	0.502700
H961	H96	0.764900	0.931800	0.527500
C1291	C129	0.834000	0.993000	0.462200
H971	H97	0.876900	0.951600	0.458700
C1301	C130	0.837400	0.066000	0.426700
C1311	C131	0.773400	0.124600	0.430600
H981	H98	0.775200	0.173300	0.405000
C1321	C132	0.907400	0.074200	0.382800
C1331	C133	0.003800	0.125300	0.319800
C1341	C134	0.059200	0.187600	0.289600
C1351	C135	0.040800	0.219000	0.230600
H991	H99	0.992200	0.200800	0.208600
C1361	C136	0.095600	0.277600	0.204700
H1001	H100	0.085500	0.297700	0.163700
C1371	C137	0.163900	0.307100	0.236900
H1011	H101	0.199400	0.348300	0.218500
C1381	C138	0.181800	0.277200	0.297000
C1391	C139	0.127600	0.216600	0.321700
H1021	H102	0.138700	0.194800	0.362100
C1401	C140	0.253900	0.307500	0.333900
C1411	C141	0.298200	0.381500	0.319600
H1031	H103	0.285800	0.411500	0.282500
C1421	C142	0.359700	0.410700	0.359400
H1041	H104	0.389200	0.460400	0.348000
C1431	C143	0.343300	0.298800	0.423800
H1051	H105	0.360600	0.268300	0.459600
C1441	C144	0.282400	0.264400	0.386500
H1061	H106	0.259300	0.210900	0.396500
N311	N31	0.524100	0.312600	0.492400
N321	N32	0.945300	0.010100	0.355850
N331	N33	0.006500	0.043100	0.316500
N341	N34	0.943000	0.147500	0.361370
N351	N35	0.923500	0.228900	0.382400
H1071	H107	0.972100	0.256100	0.392700
H1081	H108	0.896800	0.257700	0.351500
N361	N36	0.380000	0.373600	0.412400
C1451	C145	0.243600	0.038100	0.286900
H1091	H109	0.237800	0.008000	0.324900
C1461	C146	0.310100	0.093900	0.281400
H1101	H110	0.349000	0.100400	0.314700
C1471	C147	0.320000	0.139900	0.227600
C1481	C148	0.262600	0.124600	0.180400
H1111	H111	0.267600	0.153100	0.141700
C1491	C149	0.197900	0.067600	0.189900
H1121	H112	0.158700	0.058900	0.157000
C1501	C150	0.386400	0.206600	0.221100
C1511	C151	0.459700	0.204300	0.257700
H1131	H113	0.468500	0.159100	0.285900
C1521	C152	0.518700	0.267200	0.252700
H1141	H114	0.568200	0.264900	0.277500
C1531	C153	0.507000	0.334000	0.212200
H1151	H115	0.548400	0.376900	0.208700
C1541	C154	0.434000	0.337400	0.176700
C1551	C155	0.375400	0.273400	0.180600
H1161	H116	0.326700	0.275200	0.155000
C1561	C156	0.425800	0.407400	0.132800
C1571	C157	0.374700	0.503800	0.069800
C1581	C158	0.312400	0.559200	0.039600
C1591	C159	0.281000	0.540800	0.980600
H1171	H117	0.299200	0.492200	0.958600
C1601	C160	0.222400	0.595600	0.954700
H1181	H118	0.202300	0.585500	0.913700
C1611	C161	0.192900	0.663900	0.986900
H1191	H119	0.151700	0.699400	0.968500
C1621	C162	0.222800	0.681800	0.047000
C1631	C163	0.283400	0.627600	0.071700
H1201	H120	0.305200	0.638700	0.112100
C1641	C164	0.192500	0.753900	0.083900
C1651	C165	0.118500	0.798200	0.069600
H1211	H121	0.088500	0.785800	0.032500
C1661	C166	0.089300	0.859700	0.109400
H1221	H122	0.039600	0.889200	0.098000
C1671	C167	0.201200	0.843300	0.173800
H1231	H123	0.231700	0.860600	0.209600
C1681	C168	0.235600	0.782400	0.136500
H1241	H124	0.289100	0.759300	0.146500
N371	N37	0.187400	0.024100	0.242400
N381	N38	0.489900	0.445300	0.105850
N391	N39	0.456900	0.506500	0.066500
N401	N40	0.352500	0.443000	0.111370
N411	N41	0.271100	0.423500	0.132400
H1251	H125	0.243900	0.472100	0.142700
H1261	H126	0.242300	0.396800	0.101500
N421	N42	0.126400	0.880000	0.162400
C1691	C169	0.756400	0.961900	0.786900
H1271	H127	0.762200	0.992000	0.824900
C1701	C170	0.689900	0.906100	0.781400
H1281	H128	0.651000	0.899600	0.814700
C1711	C171	0.680000	0.860100	0.727600
C1721	C172	0.737400	0.875400	0.680400
H1291	H129	0.732400	0.846900	0.641700
C1731	C173	0.802100	0.932400	0.689900
H1301	H130	0.841300	0.941100	0.657000
C1741	C174	0.613600	0.793400	0.721100
C1751	C175	0.540300	0.795700	0.757700
H1311	H131	0.531500	0.840900	0.785900
C1761	C176	0.481300	0.732800	0.752700
H1321	H132	0.431800	0.735100	0.777500
C1771	C177	0.493000	0.666000	0.712200
H1331	H133	0.451600	0.623100	0.708700
C1781	C178	0.566000	0.662600	0.676700
C1791	C179	0.624600	0.726600	0.680600
H1341	H134	0.673300	0.724800	0.655000
C1801	C180	0.574200	0.592600	0.632800
C1811	C181	0.625300	0.496200	0.569800
C1821	C182	0.687600	0.440800	0.539600
C1831	C183	0.719000	0.459200	0.480600
H1351	H135	0.700800	0.507800	0.458600
C1841	C184	0.777600	0.404400	0.454700
H1361	H136	0.797700	0.414500	0.413700
C1851	C185	0.807100	0.336100	0.486900
H1371	H137	0.848300	0.300600	0.468500
C1861	C186	0.777200	0.318200	0.547000
C1871	C187	0.716600	0.372400	0.571700
H1381	H138	0.694800	0.361300	0.612100
C1881	C188	0.807500	0.246100	0.583900
C1891	C189	0.881500	0.201800	0.569600
H1391	H139	0.911500	0.214200	0.532500
C1901	C190	0.910700	0.140300	0.609400
H1401	H140	0.960400	0.110800	0.598000
C1911	C191	0.798800	0.156700	0.673800
H1411	H141	0.768300	0.139400	0.709600
C1921	C192	0.764400	0.217600	0.636500
H1421	H142	0.710900	0.240700	0.646500
N431	N43	0.812600	0.975900	0.742400
N441	N44	0.510100	0.554700	0.605850
N451	N45	0.543100	0.493500	0.566500
N461	N46	0.647500	0.557000	0.611370
N471	N47	0.728900	0.576500	0.632400
H1431	H143	0.756100	0.527900	0.642700
H1441	H144	0.757700	0.603200	0.601500
N481	N48	0.873600	0.120000	0.662400
Cd11	Cd1	0.940790	0.059210	0.750000
Cd21	Cd2	0.059210	0.940790	0.250000
Cd31	Cd3	0.440790	0.440790	0.500000
Cd41	Cd4	0.559210	0.559210	0.000000
