data_WUNVIL_charged_PM
_symmetry_space_group_name_H-M	'P1'
_cell_length_a	15.850600
_cell_length_b	15.850600
_cell_length_c	21.576000
_cell_angle_alpha	90.000000
_cell_angle_beta	90.000000
_cell_angle_gamma	90.000000
_symmetry_Int_Tables_number 1

loop_
_symmetry_equiv_pos_as_xyz
'x,y,z'

loop_
_atom_site_label
_atom_site_type_symbol
_atom_site_fract_x
_atom_site_fract_y
_atom_site_fract_z
Cd11	Cd1	0.440010	0.440010	0.500000
Cd21	Cd2	0.559990	0.559990	0.000000
Cd31	Cd3	0.059990	0.940010	0.750000
Cd41	Cd4	0.940010	0.059990	0.250000
H11	H1	0.559100	0.342500	0.592800
H21	H2	0.653000	0.232600	0.609300
H31	H3	0.597700	0.147000	0.438200
H41	H4	0.504800	0.258600	0.427100
H51	H5	0.662200	0.032700	0.464300
H61	H6	0.767200	0.931000	0.474700
H71	H7	0.879500	0.953400	0.542500
H81	H8	0.776300	0.174200	0.596000
H91	H9	0.994200	0.200200	0.792000
H101	H10	0.088800	0.295000	0.837400
H111	H11	0.204300	0.345700	0.783400
H121	H12	0.140000	0.194400	0.639200
H131	H13	0.263600	0.209000	0.606700
H141	H14	0.361800	0.267700	0.541700
H151	H15	0.386000	0.464700	0.649800
H161	H16	0.286100	0.413700	0.717100
H171	H17	0.972800	0.256500	0.607700
H181	H18	0.900500	0.259300	0.651500
H191	H19	0.440900	0.657500	0.092800
H201	H20	0.347000	0.767400	0.109300
H211	H21	0.402300	0.853000	0.938200
H221	H22	0.495200	0.741400	0.927100
H231	H23	0.337800	0.967300	0.964300
H241	H24	0.232800	0.069000	0.974700
H251	H25	0.120500	0.046600	0.042500
H261	H26	0.223700	0.825800	0.096000
H271	H27	0.005800	0.799800	0.292000
H281	H28	0.911200	0.705000	0.337400
H291	H29	0.795700	0.654300	0.283400
H301	H30	0.860000	0.805600	0.139200
H311	H31	0.736400	0.791000	0.106700
H321	H32	0.638200	0.732300	0.041700
H331	H33	0.614000	0.535300	0.149800
H341	H34	0.713900	0.586300	0.217100
H351	H35	0.027200	0.743500	0.107700
H361	H36	0.099500	0.740700	0.151500
H371	H37	0.157500	0.059100	0.842800
H381	H38	0.267400	0.153000	0.859300
H391	H39	0.353000	0.097700	0.688200
H401	H40	0.241400	0.004800	0.677100
H411	H41	0.467300	0.162200	0.714300
H421	H42	0.569000	0.267200	0.724700
H431	H43	0.546600	0.379500	0.792500
H441	H44	0.325800	0.276300	0.846000
H451	H45	0.299800	0.494200	0.042000
H461	H46	0.205000	0.588800	0.087400
H471	H47	0.154300	0.704300	0.033400
H481	H48	0.305600	0.640000	0.889200
H491	H49	0.291000	0.763600	0.856700
H501	H50	0.232300	0.861800	0.791700
H511	H51	0.035300	0.886000	0.899800
H521	H52	0.086300	0.786100	0.967100
H531	H53	0.243500	0.472800	0.857700
H541	H54	0.240700	0.400500	0.901500
H551	H55	0.842500	0.940900	0.342800
H561	H56	0.732600	0.847000	0.359300
H571	H57	0.647000	0.902300	0.188200
H581	H58	0.758600	0.995200	0.177100
H591	H59	0.532700	0.837800	0.214300
H601	H60	0.431000	0.732800	0.224700
H611	H61	0.453400	0.620500	0.292500
H621	H62	0.674200	0.723700	0.346000
H631	H63	0.700200	0.505800	0.542000
H641	H64	0.795000	0.411200	0.587400
H651	H65	0.845700	0.295700	0.533400
H661	H66	0.694400	0.360000	0.389200
H671	H67	0.709000	0.236400	0.356700
H681	H68	0.767700	0.138200	0.291700
H691	H69	0.964700	0.114000	0.399800
H701	H70	0.913700	0.213900	0.467100
H711	H71	0.756500	0.527200	0.357700
H721	H72	0.759300	0.599500	0.401500
H731	H73	0.940900	0.842500	0.657200
H741	H74	0.847000	0.732600	0.640700
H751	H75	0.902300	0.647000	0.811800
H761	H76	0.995200	0.758600	0.822900
H771	H77	0.837800	0.532700	0.785700
H781	H78	0.732800	0.431000	0.775300
H791	H79	0.620500	0.453400	0.707500
H801	H80	0.723700	0.674200	0.654000
H811	H81	0.505800	0.700200	0.458000
H821	H82	0.411200	0.795000	0.412600
H831	H83	0.295700	0.845700	0.466600
H841	H84	0.360000	0.694400	0.610800
H851	H85	0.236400	0.709000	0.643300
H861	H86	0.138200	0.767700	0.708300
H871	H87	0.114000	0.964700	0.600200
H881	H88	0.213900	0.913700	0.532900
H891	H89	0.527200	0.756500	0.642300
H901	H90	0.599500	0.759300	0.598500
H911	H91	0.059100	0.157500	0.157200
H921	H92	0.153000	0.267400	0.140700
H931	H93	0.097700	0.353000	0.311800
H941	H94	0.004800	0.241400	0.322900
H951	H95	0.162200	0.467300	0.285700
H961	H96	0.267200	0.569000	0.275300
H971	H97	0.379500	0.546600	0.207500
H981	H98	0.276300	0.325800	0.154000
H991	H99	0.494200	0.299800	0.958000
H1001	H100	0.588800	0.205000	0.912600
H1011	H101	0.704300	0.154300	0.966600
H1021	H102	0.640000	0.305600	0.110800
H1031	H103	0.763600	0.291000	0.143300
H1041	H104	0.861800	0.232300	0.208300
H1051	H105	0.886000	0.035300	0.100200
H1061	H106	0.786100	0.086300	0.032900
H1071	H107	0.472800	0.243500	0.142300
H1081	H108	0.400500	0.240700	0.098500
H1091	H109	0.342500	0.559100	0.407200
H1101	H110	0.232600	0.653000	0.390700
H1111	H111	0.147000	0.597700	0.561800
H1121	H112	0.258600	0.504800	0.572900
H1131	H113	0.032700	0.662200	0.535700
H1141	H114	0.931000	0.767200	0.525300
H1151	H115	0.953400	0.879500	0.457500
H1161	H116	0.174200	0.776300	0.404000
H1171	H117	0.200200	0.994200	0.208000
H1181	H118	0.295000	0.088800	0.162600
H1191	H119	0.345700	0.204300	0.216600
H1201	H120	0.194400	0.140000	0.360800
H1211	H121	0.209000	0.263600	0.393300
H1221	H122	0.267700	0.361800	0.458300
H1231	H123	0.464700	0.386000	0.350200
H1241	H124	0.413700	0.286100	0.282900
H1251	H125	0.256500	0.972800	0.392300
H1261	H126	0.259300	0.900500	0.348500
H1271	H127	0.657500	0.440900	0.907200
H1281	H128	0.767400	0.347000	0.890700
H1291	H129	0.853000	0.402300	0.061800
H1301	H130	0.741400	0.495200	0.072900
H1311	H131	0.967300	0.337800	0.035700
H1321	H132	0.069000	0.232800	0.025300
H1331	H133	0.046600	0.120500	0.957500
H1341	H134	0.825800	0.223700	0.904000
H1351	H135	0.799800	0.005800	0.708000
H1361	H136	0.705000	0.911200	0.662600
H1371	H137	0.654300	0.795700	0.716600
H1381	H138	0.805600	0.860000	0.860800
H1391	H139	0.791000	0.736400	0.893300
H1401	H140	0.732300	0.638200	0.958300
H1411	H141	0.535300	0.614000	0.850200
H1421	H142	0.586300	0.713900	0.782900
H1431	H143	0.743500	0.027200	0.892300
H1441	H144	0.740700	0.099500	0.848500
C11	C1	0.567200	0.302300	0.560700
C21	C2	0.624600	0.237300	0.570700
C31	C3	0.640200	0.179100	0.523300
C41	C4	0.592300	0.187100	0.470600
C51	C5	0.535800	0.253900	0.464600
C61	C6	0.707000	0.113400	0.530600
C71	C7	0.706400	0.040900	0.493400
C81	C8	0.769500	0.981100	0.498800
C91	C9	0.835900	0.994300	0.539200
C101	C10	0.839100	0.066100	0.574400
C111	C11	0.774300	0.125200	0.570700
C121	C12	0.908900	0.074100	0.618600
C131	C13	0.005500	0.124900	0.681200
C141	C14	0.060100	0.187300	0.711300
C151	C15	0.043000	0.218000	0.770000
C161	C16	0.098800	0.275700	0.796300
C171	C17	0.167800	0.305500	0.764600
C181	C18	0.183900	0.276400	0.704700
C191	C19	0.129000	0.216000	0.679500
C201	C20	0.255600	0.307800	0.667700
C211	C21	0.285100	0.263700	0.615500
C221	C22	0.344500	0.298700	0.577200
C231	C23	0.358200	0.413400	0.639800
C241	C24	0.298400	0.383200	0.680300
C251	C25	0.432800	0.697700	0.060700
C261	C26	0.375400	0.762700	0.070700
C271	C27	0.359800	0.820900	0.023300
C281	C28	0.407700	0.812900	0.970600
C291	C29	0.464200	0.746100	0.964600
C301	C30	0.293000	0.886600	0.030600
C311	C31	0.293600	0.959100	0.993400
C321	C32	0.230500	0.018900	0.998800
C331	C33	0.164100	0.005700	0.039200
C341	C34	0.160900	0.933900	0.074400
C351	C35	0.225700	0.874800	0.070700
C361	C36	0.091100	0.925900	0.118600
C371	C37	0.994500	0.875100	0.181200
C381	C38	0.939900	0.812700	0.211300
C391	C39	0.957000	0.782000	0.270000
C401	C40	0.901200	0.724300	0.296300
C411	C41	0.832200	0.694500	0.264600
C421	C42	0.816100	0.723600	0.204700
C431	C43	0.871000	0.784000	0.179500
C441	C44	0.744400	0.692200	0.167700
C451	C45	0.714900	0.736300	0.115500
C461	C46	0.655500	0.701300	0.077200
C471	C47	0.641800	0.586600	0.139800
C481	C48	0.701600	0.616800	0.180300
C491	C49	0.197700	0.067200	0.810700
C501	C50	0.262700	0.124600	0.820700
C511	C51	0.320900	0.140200	0.773300
C521	C52	0.312900	0.092300	0.720600
C531	C53	0.246100	0.035800	0.714600
C541	C54	0.386600	0.207000	0.780600
C551	C55	0.459100	0.206400	0.743400
C561	C56	0.518900	0.269500	0.748800
C571	C57	0.505700	0.335900	0.789200
C581	C58	0.433900	0.339100	0.824400
C591	C59	0.374800	0.274300	0.820700
C601	C60	0.425900	0.408900	0.868600
C611	C61	0.375100	0.505500	0.931200
C621	C62	0.312700	0.560100	0.961300
C631	C63	0.282000	0.543000	0.020000
C641	C64	0.224300	0.598800	0.046300
C651	C65	0.194500	0.667800	0.014600
C661	C66	0.223600	0.683900	0.954700
C671	C67	0.284000	0.629000	0.929500
C681	C68	0.192200	0.755600	0.917700
C691	C69	0.236300	0.785100	0.865500
C701	C70	0.201300	0.844500	0.827200
C711	C71	0.086600	0.858200	0.889800
C721	C72	0.116800	0.798400	0.930300
C731	C73	0.802300	0.932800	0.310700
C741	C74	0.737300	0.875400	0.320700
C751	C75	0.679100	0.859800	0.273300
C761	C76	0.687100	0.907700	0.220600
C771	C77	0.753900	0.964200	0.214600
C781	C78	0.613400	0.793000	0.280600
C791	C79	0.540900	0.793600	0.243400
C801	C80	0.481100	0.730500	0.248800
C811	C81	0.494300	0.664100	0.289200
C821	C82	0.566100	0.660900	0.324400
C831	C83	0.625200	0.725700	0.320700
C841	C84	0.574100	0.591100	0.368600
C851	C85	0.624900	0.494500	0.431200
C861	C86	0.687300	0.439900	0.461300
C871	C87	0.718000	0.457000	0.520000
C881	C88	0.775700	0.401200	0.546300
C891	C89	0.805500	0.332200	0.514600
C901	C90	0.776400	0.316100	0.454700
C911	C91	0.716000	0.371000	0.429500
C921	C92	0.807800	0.244400	0.417700
C931	C93	0.763700	0.214900	0.365500
C941	C94	0.798700	0.155500	0.327200
C951	C95	0.913400	0.141800	0.389800
C961	C96	0.883200	0.201600	0.430300
C971	C97	0.932800	0.802300	0.689300
C981	C98	0.875400	0.737300	0.679300
C991	C99	0.859800	0.679100	0.726700
C1001	C100	0.907700	0.687100	0.779400
C1011	C101	0.964200	0.753900	0.785400
C1021	C102	0.793000	0.613400	0.719400
C1031	C103	0.793600	0.540900	0.756600
C1041	C104	0.730500	0.481100	0.751200
C1051	C105	0.664100	0.494300	0.710800
C1061	C106	0.660900	0.566100	0.675600
C1071	C107	0.725700	0.625200	0.679300
C1081	C108	0.591100	0.574100	0.631400
C1091	C109	0.494500	0.624900	0.568800
C1101	C110	0.439900	0.687300	0.538700
C1111	C111	0.457000	0.718000	0.480000
C1121	C112	0.401200	0.775700	0.453700
C1131	C113	0.332200	0.805500	0.485400
C1141	C114	0.316100	0.776400	0.545300
C1151	C115	0.371000	0.716000	0.570500
C1161	C116	0.244400	0.807800	0.582300
C1171	C117	0.214900	0.763700	0.634500
C1181	C118	0.155500	0.798700	0.672800
C1191	C119	0.141800	0.913400	0.610200
C1201	C120	0.201600	0.883200	0.569700
C1211	C121	0.067200	0.197700	0.189300
C1221	C122	0.124600	0.262700	0.179300
C1231	C123	0.140200	0.320900	0.226700
C1241	C124	0.092300	0.312900	0.279400
C1251	C125	0.035800	0.246100	0.285400
C1261	C126	0.207000	0.386600	0.219400
C1271	C127	0.206400	0.459100	0.256600
C1281	C128	0.269500	0.518900	0.251200
C1291	C129	0.335900	0.505700	0.210800
C1301	C130	0.339100	0.433900	0.175600
C1311	C131	0.274300	0.374800	0.179300
C1321	C132	0.408900	0.425900	0.131400
C1331	C133	0.505500	0.375100	0.068800
C1341	C134	0.560100	0.312700	0.038700
C1351	C135	0.543000	0.282000	0.980000
C1361	C136	0.598800	0.224300	0.953700
C1371	C137	0.667800	0.194500	0.985400
C1381	C138	0.683900	0.223600	0.045300
C1391	C139	0.629000	0.284000	0.070500
C1401	C140	0.755600	0.192200	0.082300
C1411	C141	0.785100	0.236300	0.134500
C1421	C142	0.844500	0.201300	0.172800
C1431	C143	0.858200	0.086600	0.110200
C1441	C144	0.798400	0.116800	0.069700
C1451	C145	0.302300	0.567200	0.439300
C1461	C146	0.237300	0.624600	0.429300
C1471	C147	0.179100	0.640200	0.476700
C1481	C148	0.187100	0.592300	0.529400
C1491	C149	0.253900	0.535800	0.535400
C1501	C150	0.113400	0.707000	0.469400
C1511	C151	0.040900	0.706400	0.506600
C1521	C152	0.981100	0.769500	0.501200
C1531	C153	0.994300	0.835900	0.460800
C1541	C154	0.066100	0.839100	0.425600
C1551	C155	0.125200	0.774300	0.429300
C1561	C156	0.074100	0.908900	0.381400
C1571	C157	0.124900	0.005500	0.318800
C1581	C158	0.187300	0.060100	0.288700
C1591	C159	0.218000	0.043000	0.230000
C1601	C160	0.275700	0.098800	0.203700
C1611	C161	0.305500	0.167800	0.235400
C1621	C162	0.276400	0.183900	0.295300
C1631	C163	0.216000	0.129000	0.320500
C1641	C164	0.307800	0.255600	0.332300
C1651	C165	0.263700	0.285100	0.384500
C1661	C166	0.298700	0.344500	0.422800
C1671	C167	0.413400	0.358200	0.360200
C1681	C168	0.383200	0.298400	0.319700
C1691	C169	0.697700	0.432800	0.939300
C1701	C170	0.762700	0.375400	0.929300
C1711	C171	0.820900	0.359800	0.976700
C1721	C172	0.812900	0.407700	0.029400
C1731	C173	0.746100	0.464200	0.035400
C1741	C174	0.886600	0.293000	0.969400
C1751	C175	0.959100	0.293600	0.006600
C1761	C176	0.018900	0.230500	0.001200
C1771	C177	0.005700	0.164100	0.960800
C1781	C178	0.933900	0.160900	0.925600
C1791	C179	0.874800	0.225700	0.929300
C1801	C180	0.925900	0.091100	0.881400
C1811	C181	0.875100	0.994500	0.818800
C1821	C182	0.812700	0.939900	0.788700
C1831	C183	0.782000	0.957000	0.730000
C1841	C184	0.724300	0.901200	0.703700
C1851	C185	0.694500	0.832200	0.735400
C1861	C186	0.723600	0.816100	0.795300
C1871	C187	0.784000	0.871000	0.820500
C1881	C188	0.692200	0.744400	0.832300
C1891	C189	0.736300	0.714900	0.884500
C1901	C190	0.701300	0.655500	0.922800
C1911	C191	0.586600	0.641800	0.860200
C1921	C192	0.616800	0.701600	0.819700
N11	N1	0.379400	0.374700	0.587400
N21	N2	0.522800	0.311500	0.508400
N31	N3	0.946500	0.011100	0.644800
N41	N4	0.007200	0.043500	0.683800
N51	N5	0.944300	0.148200	0.640200
N61	N6	0.924600	0.230000	0.619800
N71	N7	0.620600	0.625300	0.087400
N81	N8	0.477200	0.688500	0.008400
N91	N9	0.053500	0.988900	0.144800
N101	N10	0.992800	0.956500	0.183800
N111	N11	0.055700	0.851800	0.140200
N121	N12	0.075400	0.770000	0.119800
N131	N13	0.125300	0.879400	0.837400
N141	N14	0.188500	0.022800	0.758400
N151	N15	0.488900	0.446500	0.894800
N161	N16	0.456500	0.507200	0.933800
N171	N17	0.351800	0.444300	0.890200
N181	N18	0.270000	0.424600	0.869800
N191	N19	0.874700	0.120600	0.337400
N201	N20	0.811500	0.977200	0.258400
N211	N21	0.511100	0.553500	0.394800
N221	N22	0.543500	0.492800	0.433800
N231	N23	0.648200	0.555700	0.390200
N241	N24	0.730000	0.575400	0.369800
N251	N25	0.120600	0.874700	0.662600
N261	N26	0.977200	0.811500	0.741600
N271	N27	0.553500	0.511100	0.605200
N281	N28	0.492800	0.543500	0.566200
N291	N29	0.555700	0.648200	0.609800
N301	N30	0.575400	0.730000	0.630200
N311	N31	0.879400	0.125300	0.162600
N321	N32	0.022800	0.188500	0.241600
N331	N33	0.446500	0.488900	0.105200
N341	N34	0.507200	0.456500	0.066200
N351	N35	0.444300	0.351800	0.109800
N361	N36	0.424600	0.270000	0.130200
N371	N37	0.374700	0.379400	0.412600
N381	N38	0.311500	0.522800	0.491600
N391	N39	0.011100	0.946500	0.355200
N401	N40	0.043500	0.007200	0.316200
N411	N41	0.148200	0.944300	0.359800
N421	N42	0.230000	0.924600	0.380200
N431	N43	0.625300	0.620600	0.912600
N441	N44	0.688500	0.477200	0.991600
N451	N45	0.988900	0.053500	0.855200
N461	N46	0.956500	0.992800	0.816200
N471	N47	0.851800	0.055700	0.859800
N481	N48	0.770000	0.075400	0.880200
Cl11	Cl1	0.374940	0.625060	0.750000
O11	O1	0.377900	0.569500	0.790900
O21	O2	0.392000	0.691500	0.782200
O31	O3	0.430500	0.622100	0.709100
O41	O4	0.308500	0.608000	0.717800
Cl21	Cl2	0.625060	0.374940	0.250000
O51	O5	0.622100	0.430500	0.290900
O61	O6	0.608000	0.308500	0.282200
O71	O7	0.569500	0.377900	0.209100
O81	O8	0.691500	0.392000	0.217800
Cl31	Cl3	0.874940	0.874940	0.000000
O91	O9	0.930500	0.877900	0.040900
O101	O10	0.808500	0.892000	0.032200
O111	O11	0.877900	0.930500	0.959100
O121	O12	0.892000	0.808500	0.967800
Cl41	Cl4	0.125060	0.125060	0.500000
O131	O13	0.069500	0.122100	0.540900
O141	O14	0.191500	0.108000	0.532200
O151	O15	0.122100	0.069500	0.459100
O161	O16	0.108000	0.191500	0.467800
