data_WUNVOR_clean_PM
_symmetry_space_group_name_H-M	'P1'
_cell_length_a	15.903000
_cell_length_b	15.903000
_cell_length_c	21.615000
_cell_angle_alpha	90.000000
_cell_angle_beta	90.000000
_cell_angle_gamma	90.000000
_symmetry_Int_Tables_number 1

loop_
_symmetry_equiv_pos_as_xyz
'x,y,z'

loop_
_atom_site_label
_atom_site_type_symbol
_atom_site_fract_x
_atom_site_fract_y
_atom_site_fract_z
C11	C1	0.962400	0.244700	0.035100
H11	H1	0.993400	0.240500	0.071500
C21	C2	0.905700	0.310600	0.029700
H21	H2	0.899900	0.349300	0.061700
C31	C3	0.857900	0.318700	0.976720
C41	C4	0.873800	0.260000	0.929980
H31	H3	0.845400	0.263600	0.892500
C51	C5	0.931400	0.197000	0.939500
H41	H4	0.940400	0.158900	0.907600
C61	C6	0.791600	0.384200	0.970660
C71	C7	0.791400	0.455700	0.007700
H51	H5	0.834300	0.463600	0.036400
C81	C8	0.728900	0.514900	0.002600
H61	H6	0.730900	0.563100	0.026900
C91	C9	0.663100	0.503500	0.961800
H71	H7	0.620700	0.543600	0.958700
C101	C10	0.660900	0.431700	0.925400
C111	C11	0.725100	0.372100	0.929280
H81	H8	0.723700	0.324400	0.904400
C121	C12	0.590900	0.423700	0.880960
C131	C13	0.494800	0.372700	0.819110
C141	C14	0.439200	0.310700	0.788870
C151	C15	0.456300	0.280500	0.730170
H91	H9	0.503500	0.298600	0.708600
C161	C16	0.400700	0.222000	0.704000
H101	H10	0.410000	0.202600	0.664000
C171	C17	0.332600	0.193100	0.736900
H111	H11	0.296900	0.153600	0.719000
C181	C18	0.316300	0.221900	0.796450
C191	C19	0.370200	0.281800	0.821440
H121	H12	0.359700	0.302800	0.860800
C201	C20	0.244600	0.191200	0.833560
C211	C21	0.201700	0.116200	0.820030
H131	H13	0.213700	0.086800	0.783900
C221	C22	0.142000	0.086700	0.860270
H141	H14	0.115000	0.036600	0.850400
C231	C23	0.157000	0.199500	0.923330
H151	H15	0.141000	0.229300	0.958400
C241	C24	0.216600	0.234000	0.885610
H161	H16	0.238600	0.286700	0.894900
N11	N1	0.553800	0.487330	0.854690
N21	N2	0.492710	0.455170	0.815770
N31	N3	0.555700	0.350610	0.859930
N41	N4	0.575200	0.268800	0.880730
N51	N5	0.975250	0.187100	0.991430
N61	N6	0.120300	0.125100	0.912550
H171	H17	0.599600	0.244000	0.847700
H181	H18	0.523900	0.244400	0.886700
C251	C25	0.037600	0.755300	0.535100
H191	H19	0.006600	0.759500	0.571500
C261	C26	0.094300	0.689400	0.529700
H201	H20	0.100100	0.650700	0.561700
C271	C27	0.142100	0.681300	0.476720
C281	C28	0.126200	0.740000	0.429980
H211	H21	0.154600	0.736400	0.392500
C291	C29	0.068600	0.803000	0.439500
H221	H22	0.059600	0.841100	0.407600
C301	C30	0.208400	0.615800	0.470660
C311	C31	0.208600	0.544300	0.507700
H231	H23	0.165700	0.536400	0.536400
C321	C32	0.271100	0.485100	0.502600
H241	H24	0.269100	0.436900	0.526900
C331	C33	0.336900	0.496500	0.461800
H251	H25	0.379300	0.456400	0.458700
C341	C34	0.339100	0.568300	0.425400
C351	C35	0.274900	0.627900	0.429280
H261	H26	0.276300	0.675600	0.404400
C361	C36	0.409100	0.576300	0.380960
C371	C37	0.505200	0.627300	0.319110
C381	C38	0.560800	0.689300	0.288870
C391	C39	0.543700	0.719500	0.230170
H271	H27	0.496500	0.701400	0.208600
C401	C40	0.599300	0.778000	0.204000
H281	H28	0.590000	0.797400	0.164000
C411	C41	0.667400	0.806900	0.236900
H291	H29	0.703100	0.846400	0.219000
C421	C42	0.683700	0.778100	0.296450
C431	C43	0.629800	0.718200	0.321440
H301	H30	0.640300	0.697200	0.360800
C441	C44	0.755400	0.808800	0.333560
C451	C45	0.798300	0.883800	0.320030
H311	H31	0.786300	0.913200	0.283900
C461	C46	0.858000	0.913300	0.360270
H321	H32	0.885000	0.963400	0.350400
C471	C47	0.843000	0.800500	0.423330
H331	H33	0.859000	0.770700	0.458400
C481	C48	0.783400	0.766000	0.385610
H341	H34	0.761400	0.713300	0.394900
N71	N7	0.446200	0.512670	0.354690
N81	N8	0.507290	0.544830	0.315770
N91	N9	0.444300	0.649390	0.359930
N101	N10	0.424800	0.731200	0.380730
N111	N11	0.024750	0.812900	0.491430
N121	N12	0.879700	0.874900	0.412550
H351	H35	0.400400	0.756000	0.347700
H361	H36	0.476100	0.755600	0.386700
C491	C49	0.255300	0.462400	0.785100
H371	H37	0.259500	0.493400	0.821500
C501	C50	0.189400	0.405700	0.779700
H381	H38	0.150700	0.399900	0.811700
C511	C51	0.181300	0.357900	0.726720
C521	C52	0.240000	0.373800	0.679980
H391	H39	0.236400	0.345400	0.642500
C531	C53	0.303000	0.431400	0.689500
H401	H40	0.341100	0.440400	0.657600
C541	C54	0.115800	0.291600	0.720660
C551	C55	0.044300	0.291400	0.757700
H411	H41	0.036400	0.334300	0.786400
C561	C56	0.985100	0.228900	0.752600
H421	H42	0.936900	0.230900	0.776900
C571	C57	0.996500	0.163100	0.711800
H431	H43	0.956400	0.120700	0.708700
C581	C58	0.068300	0.160900	0.675400
C591	C59	0.127900	0.225100	0.679280
H441	H44	0.175600	0.223700	0.654400
C601	C60	0.076300	0.090900	0.630960
C611	C61	0.127300	0.994800	0.569110
C621	C62	0.189300	0.939200	0.538870
C631	C63	0.219500	0.956300	0.480170
H451	H45	0.201400	0.003500	0.458600
C641	C64	0.278000	0.900700	0.454000
H461	H46	0.297400	0.910000	0.414000
C651	C65	0.306900	0.832600	0.486900
H471	H47	0.346400	0.796900	0.469000
C661	C66	0.278100	0.816300	0.546450
C671	C67	0.218200	0.870200	0.571440
H481	H48	0.197200	0.859700	0.610800
C681	C68	0.308800	0.744600	0.583560
C691	C69	0.383800	0.701700	0.570030
H491	H49	0.413200	0.713700	0.533900
C701	C70	0.413300	0.642000	0.610270
H501	H50	0.463400	0.615000	0.600400
C711	C71	0.300500	0.657000	0.673330
H511	H51	0.270700	0.641000	0.708400
C721	C72	0.266000	0.716600	0.635610
H521	H52	0.213300	0.738600	0.644900
N131	N13	0.012670	0.053800	0.604690
N141	N14	0.044830	0.992710	0.565770
N151	N15	0.149390	0.055700	0.609930
N161	N16	0.231200	0.075200	0.630730
N171	N17	0.312900	0.475250	0.741430
N181	N18	0.374900	0.620300	0.662550
H531	H53	0.256000	0.099600	0.597700
H541	H54	0.255600	0.023900	0.636700
C731	C73	0.744700	0.537600	0.285100
H551	H55	0.740500	0.506600	0.321500
C741	C74	0.810600	0.594300	0.279700
H561	H56	0.849300	0.600100	0.311700
C751	C75	0.818700	0.642100	0.226720
C761	C76	0.760000	0.626200	0.179980
H571	H57	0.763600	0.654600	0.142500
C771	C77	0.697000	0.568600	0.189500
H581	H58	0.658900	0.559600	0.157600
C781	C78	0.884200	0.708400	0.220660
C791	C79	0.955700	0.708600	0.257700
H591	H59	0.963600	0.665700	0.286400
C801	C80	0.014900	0.771100	0.252600
H601	H60	0.063100	0.769100	0.276900
C811	C81	0.003500	0.836900	0.211800
H611	H61	0.043600	0.879300	0.208700
C821	C82	0.931700	0.839100	0.175400
C831	C83	0.872100	0.774900	0.179280
H621	H62	0.824400	0.776300	0.154400
C841	C84	0.923700	0.909100	0.130960
C851	C85	0.872700	0.005200	0.069110
C861	C86	0.810700	0.060800	0.038870
C871	C87	0.780500	0.043700	0.980170
H631	H63	0.798600	0.996500	0.958600
C881	C88	0.722000	0.099300	0.954000
H641	H64	0.702600	0.090000	0.914000
C891	C89	0.693100	0.167400	0.986900
H651	H65	0.653600	0.203100	0.969000
C901	C90	0.721900	0.183700	0.046450
C911	C91	0.781800	0.129800	0.071440
H661	H66	0.802800	0.140300	0.110800
C921	C92	0.691200	0.255400	0.083560
C931	C93	0.616200	0.298300	0.070030
H671	H67	0.586800	0.286300	0.033900
C941	C94	0.586700	0.358000	0.110270
H681	H68	0.536600	0.385000	0.100400
C951	C95	0.699500	0.343000	0.173330
H691	H69	0.729300	0.359000	0.208400
C961	C96	0.734000	0.283400	0.135610
H701	H70	0.786700	0.261400	0.144900
N191	N19	0.987330	0.946200	0.104690
N201	N20	0.955170	0.007290	0.065770
N211	N21	0.850610	0.944300	0.109930
N221	N22	0.768800	0.924800	0.130730
N231	N23	0.687100	0.524750	0.241430
N241	N24	0.625100	0.379700	0.162550
H711	H71	0.744000	0.900400	0.097700
H721	H72	0.744400	0.976100	0.136700
C971	C97	0.537600	0.744700	0.714900
H731	H73	0.506600	0.740500	0.678500
C981	C98	0.594300	0.810600	0.720300
H741	H74	0.600100	0.849300	0.688300
C991	C99	0.642100	0.818700	0.773280
C1001	C100	0.626200	0.760000	0.820020
H751	H75	0.654600	0.763600	0.857500
C1011	C101	0.568600	0.697000	0.810500
H761	H76	0.559600	0.658900	0.842400
C1021	C102	0.708400	0.884200	0.779340
C1031	C103	0.708600	0.955700	0.742300
H771	H77	0.665700	0.963600	0.713600
C1041	C104	0.771100	0.014900	0.747400
H781	H78	0.769100	0.063100	0.723100
C1051	C105	0.836900	0.003500	0.788200
H791	H79	0.879300	0.043600	0.791300
C1061	C106	0.839100	0.931700	0.824600
C1071	C107	0.774900	0.872100	0.820720
H801	H80	0.776300	0.824400	0.845600
C1081	C108	0.909100	0.923700	0.869040
C1091	C109	0.005200	0.872700	0.930890
C1101	C110	0.060800	0.810700	0.961130
C1111	C111	0.043700	0.780500	0.019830
H811	H81	0.996500	0.798600	0.041400
C1121	C112	0.099300	0.722000	0.046000
H821	H82	0.090000	0.702600	0.086000
C1131	C113	0.167400	0.693100	0.013100
H831	H83	0.203100	0.653600	0.031000
C1141	C114	0.183700	0.721900	0.953550
C1151	C115	0.129800	0.781800	0.928560
H841	H84	0.140300	0.802800	0.889200
C1161	C116	0.255400	0.691200	0.916440
C1171	C117	0.298300	0.616200	0.929970
H851	H85	0.286300	0.586800	0.966100
C1181	C118	0.358000	0.586700	0.889730
H861	H86	0.385000	0.536600	0.899600
C1191	C119	0.343000	0.699500	0.826670
H871	H87	0.359000	0.729300	0.791600
C1201	C120	0.283400	0.734000	0.864390
H881	H88	0.261400	0.786700	0.855100
N251	N25	0.946200	0.987330	0.895310
N261	N26	0.007290	0.955170	0.934230
N271	N27	0.944300	0.850610	0.890070
N281	N28	0.924800	0.768800	0.869270
N291	N29	0.524750	0.687100	0.758570
N301	N30	0.379700	0.625100	0.837450
H891	H89	0.900400	0.744000	0.902300
H901	H90	0.976100	0.744400	0.863300
C1211	C121	0.462400	0.255300	0.214900
H911	H91	0.493400	0.259500	0.178500
C1221	C122	0.405700	0.189400	0.220300
H921	H92	0.399900	0.150700	0.188300
C1231	C123	0.357900	0.181300	0.273280
C1241	C124	0.373800	0.240000	0.320020
H931	H93	0.345400	0.236400	0.357500
C1251	C125	0.431400	0.303000	0.310500
H941	H94	0.440400	0.341100	0.342400
C1261	C126	0.291600	0.115800	0.279340
C1271	C127	0.291400	0.044300	0.242300
H951	H95	0.334300	0.036400	0.213600
C1281	C128	0.228900	0.985100	0.247400
H961	H96	0.230900	0.936900	0.223100
C1291	C129	0.163100	0.996500	0.288200
H971	H97	0.120700	0.956400	0.291300
C1301	C130	0.160900	0.068300	0.324600
C1311	C131	0.225100	0.127900	0.320720
H981	H98	0.223700	0.175600	0.345600
C1321	C132	0.090900	0.076300	0.369040
C1331	C133	0.994800	0.127300	0.430890
C1341	C134	0.939200	0.189300	0.461130
C1351	C135	0.956300	0.219500	0.519830
H991	H99	0.003500	0.201400	0.541400
C1361	C136	0.900700	0.278000	0.546000
H1001	H100	0.910000	0.297400	0.586000
C1371	C137	0.832600	0.306900	0.513100
H1011	H101	0.796900	0.346400	0.531000
C1381	C138	0.816300	0.278100	0.453550
C1391	C139	0.870200	0.218200	0.428560
H1021	H102	0.859700	0.197200	0.389200
C1401	C140	0.744600	0.308800	0.416440
C1411	C141	0.701700	0.383800	0.429970
H1031	H103	0.713700	0.413200	0.466100
C1421	C142	0.642000	0.413300	0.389730
H1041	H104	0.615000	0.463400	0.399600
C1431	C143	0.657000	0.300500	0.326670
H1051	H105	0.641000	0.270700	0.291600
C1441	C144	0.716600	0.266000	0.364390
H1061	H106	0.738600	0.213300	0.355100
N311	N31	0.053800	0.012670	0.395310
N321	N32	0.992710	0.044830	0.434230
N331	N33	0.055700	0.149390	0.390070
N341	N34	0.075200	0.231200	0.369270
N351	N35	0.475250	0.312900	0.258570
N361	N36	0.620300	0.374900	0.337450
H1071	H107	0.099600	0.256000	0.402300
H1081	H108	0.023900	0.255600	0.363300
C1451	C145	0.244700	0.962400	0.964900
H1091	H109	0.240500	0.993400	0.928500
C1461	C146	0.310600	0.905700	0.970300
H1101	H110	0.349300	0.899900	0.938300
C1471	C147	0.318700	0.857900	0.023280
C1481	C148	0.260000	0.873800	0.070020
H1111	H111	0.263600	0.845400	0.107500
C1491	C149	0.197000	0.931400	0.060500
H1121	H112	0.158900	0.940400	0.092400
C1501	C150	0.384200	0.791600	0.029340
C1511	C151	0.455700	0.791400	0.992300
H1131	H113	0.463600	0.834300	0.963600
C1521	C152	0.514900	0.728900	0.997400
H1141	H114	0.563100	0.730900	0.973100
C1531	C153	0.503500	0.663100	0.038200
H1151	H115	0.543600	0.620700	0.041300
C1541	C154	0.431700	0.660900	0.074600
C1551	C155	0.372100	0.725100	0.070720
H1161	H116	0.324400	0.723700	0.095600
C1561	C156	0.423700	0.590900	0.119040
C1571	C157	0.372700	0.494800	0.180890
C1581	C158	0.310700	0.439200	0.211130
C1591	C159	0.280500	0.456300	0.269830
H1171	H117	0.298600	0.503500	0.291400
C1601	C160	0.222000	0.400700	0.296000
H1181	H118	0.202600	0.410000	0.336000
C1611	C161	0.193100	0.332600	0.263100
H1191	H119	0.153600	0.296900	0.281000
C1621	C162	0.221900	0.316300	0.203550
C1631	C163	0.281800	0.370200	0.178560
H1201	H120	0.302800	0.359700	0.139200
C1641	C164	0.191200	0.244600	0.166440
C1651	C165	0.116200	0.201700	0.179970
H1211	H121	0.086800	0.213700	0.216100
C1661	C166	0.086700	0.142000	0.139730
H1221	H122	0.036600	0.115000	0.149600
C1671	C167	0.199500	0.157000	0.076670
H1231	H123	0.229300	0.141000	0.041600
C1681	C168	0.234000	0.216600	0.114390
H1241	H124	0.286700	0.238600	0.105100
N371	N37	0.487330	0.553800	0.145310
N381	N38	0.455170	0.492710	0.184230
N391	N39	0.350610	0.555700	0.140070
N401	N40	0.268800	0.575200	0.119270
N411	N41	0.187100	0.975250	0.008570
N421	N42	0.125100	0.120300	0.087450
H1251	H125	0.244000	0.599600	0.152300
H1261	H126	0.244400	0.523900	0.113300
C1691	C169	0.755300	0.037600	0.464900
H1271	H127	0.759500	0.006600	0.428500
C1701	C170	0.689400	0.094300	0.470300
H1281	H128	0.650700	0.100100	0.438300
C1711	C171	0.681300	0.142100	0.523280
C1721	C172	0.740000	0.126200	0.570020
H1291	H129	0.736400	0.154600	0.607500
C1731	C173	0.803000	0.068600	0.560500
H1301	H130	0.841100	0.059600	0.592400
C1741	C174	0.615800	0.208400	0.529340
C1751	C175	0.544300	0.208600	0.492300
H1311	H131	0.536400	0.165700	0.463600
C1761	C176	0.485100	0.271100	0.497400
H1321	H132	0.436900	0.269100	0.473100
C1771	C177	0.496500	0.336900	0.538200
H1331	H133	0.456400	0.379300	0.541300
C1781	C178	0.568300	0.339100	0.574600
C1791	C179	0.627900	0.274900	0.570720
H1341	H134	0.675600	0.276300	0.595600
C1801	C180	0.576300	0.409100	0.619040
C1811	C181	0.627300	0.505200	0.680890
C1821	C182	0.689300	0.560800	0.711130
C1831	C183	0.719500	0.543700	0.769830
H1351	H135	0.701400	0.496500	0.791400
C1841	C184	0.778000	0.599300	0.796000
H1361	H136	0.797400	0.590000	0.836000
C1851	C185	0.806900	0.667400	0.763100
H1371	H137	0.846400	0.703100	0.781000
C1861	C186	0.778100	0.683700	0.703550
C1871	C187	0.718200	0.629800	0.678560
H1381	H138	0.697200	0.640300	0.639200
C1881	C188	0.808800	0.755400	0.666440
C1891	C189	0.883800	0.798300	0.679970
H1391	H139	0.913200	0.786300	0.716100
C1901	C190	0.913300	0.858000	0.639730
H1401	H140	0.963400	0.885000	0.649600
C1911	C191	0.800500	0.843000	0.576670
H1411	H141	0.770700	0.859000	0.541600
C1921	C192	0.766000	0.783400	0.614390
H1421	H142	0.713300	0.761400	0.605100
N431	N43	0.512670	0.446200	0.645310
N441	N44	0.544830	0.507290	0.684230
N451	N45	0.649390	0.444300	0.640070
N461	N46	0.731200	0.424800	0.619270
N471	N47	0.812900	0.024750	0.508570
N481	N48	0.874900	0.879700	0.587450
H1431	H143	0.756000	0.400400	0.652300
H1441	H144	0.755600	0.476100	0.613300
Cd11	Cd1	0.441030	0.558970	0.750000
Cd21	Cd2	0.558970	0.441030	0.250000
Cd31	Cd3	0.941030	0.941030	0.500000
Cd41	Cd4	0.058970	0.058970	0.000000
