data_WUSLED_clean_PM
_symmetry_space_group_name_H-M	'P1'
_cell_length_a	19.552000
_cell_length_b	21.898000
_cell_length_c	25.297000
_cell_angle_alpha	90.000000
_cell_angle_beta	90.000000
_cell_angle_gamma	90.000000
_symmetry_Int_Tables_number 1

loop_
_symmetry_equiv_pos_as_xyz
'x,y,z'

loop_
_atom_site_label
_atom_site_type_symbol
_atom_site_fract_x
_atom_site_fract_y
_atom_site_fract_z
U11	U1	0.797460	0.181510	0.331310
P11	P1	0.516400	0.993400	0.551290
C11	C1	0.594700	0.001700	0.459400
H11	H1	0.575900	0.964100	0.450100
O11	O1	0.731000	0.092900	0.361100
C21	C2	0.584300	0.871400	0.660400
H21	H2	0.573100	0.831200	0.668700
C31	C3	0.567300	0.959400	0.605100
O21	O2	0.737100	0.167000	0.415600
C41	C4	0.554700	0.898800	0.619000
H31	H3	0.524300	0.876300	0.598600
C51	C5	0.613800	0.989800	0.632300
H41	H4	0.622800	0.030300	0.623700
C61	C6	0.650100	0.962100	0.673800
H51	H5	0.686000	0.981600	0.691100
C71	C7	0.707700	0.115300	0.407600
C81	C8	0.636500	0.029600	0.426900
H61	H6	0.647200	0.012200	0.394400
C91	C9	0.613000	0.086800	0.522100
H71	H7	0.605300	0.105600	0.554500
O31	O3	0.474000	0.946500	0.522200
C101	C10	0.577300	0.029100	0.510300
C111	C11	0.664900	0.086100	0.441800
C121	C12	0.654400	0.112000	0.489200
H81	H8	0.676800	0.148000	0.498200
C131	C13	0.467700	0.050800	0.580100
C141	C14	0.627400	0.899900	0.688300
O41	O4	0.305000	0.229200	0.610300
O51	O5	0.361200	0.223900	0.684200
C151	C15	0.386200	0.149000	0.617600
C161	C16	0.351400	0.201200	0.638100
C171	C17	0.375000	0.127400	0.572900
H91	H9	0.343100	0.144700	0.550000
C181	C18	0.415200	0.072800	0.558400
H101	H10	0.399500	0.051500	0.528900
C191	C19	0.480500	0.077700	0.632800
H111	H11	0.511800	0.060200	0.655900
C201	C20	0.444700	0.129800	0.646700
H121	H12	0.459100	0.152700	0.675500
O61	O6	0.701300	0.900100	0.765600
O71	O7	0.649200	0.821200	0.745000
C211	C21	0.662100	0.873400	0.734200
U21	U2	0.702540	0.818490	0.831310
P21	P2	0.983600	0.006600	0.051290
C221	C22	0.905300	0.998300	0.959400
H131	H13	0.924100	0.035900	0.950100
O81	O8	0.769000	0.907100	0.861100
C231	C23	0.915700	0.128600	0.160400
H141	H14	0.926900	0.168800	0.168700
C241	C24	0.932700	0.040600	0.105100
O91	O9	0.762900	0.833000	0.915600
C251	C25	0.945300	0.101200	0.119000
H151	H15	0.975700	0.123700	0.098600
C261	C26	0.886200	0.010200	0.132300
H161	H16	0.877200	0.969700	0.123700
C271	C27	0.849900	0.037900	0.173800
H171	H17	0.814000	0.018400	0.191100
C281	C28	0.792300	0.884700	0.907600
C291	C29	0.863500	0.970400	0.926900
H181	H18	0.852800	0.987800	0.894400
C301	C30	0.887000	0.913200	0.022100
H191	H19	0.894700	0.894400	0.054500
O101	O10	0.026000	0.053500	0.022200
C311	C31	0.922700	0.970900	0.010300
C321	C32	0.835100	0.913900	0.941800
C331	C33	0.845600	0.888000	0.989200
H201	H20	0.823200	0.852000	0.998200
C341	C34	0.032300	0.949200	0.080100
C351	C35	0.872600	0.100100	0.188300
O111	O11	0.195000	0.770800	0.110300
O121	O12	0.138800	0.776100	0.184200
C361	C36	0.113800	0.851000	0.117600
C371	C37	0.148600	0.798800	0.138100
C381	C38	0.125000	0.872600	0.072900
H211	H21	0.156900	0.855300	0.050000
C391	C39	0.084800	0.927200	0.058400
H221	H22	0.100500	0.948500	0.028900
C401	C40	0.019500	0.922300	0.132800
H231	H23	0.988200	0.939800	0.155900
C411	C41	0.055300	0.870200	0.146700
H241	H24	0.040900	0.847300	0.175500
O131	O13	0.798700	0.099900	0.265600
O141	O14	0.850800	0.178800	0.245000
C421	C42	0.837900	0.126600	0.234200
U31	U3	0.202540	0.681510	0.168690
P31	P3	0.483600	0.493400	0.948710
C431	C43	0.405300	0.501700	0.040600
H251	H25	0.424100	0.464100	0.049900
O151	O15	0.269000	0.592900	0.138900
C441	C44	0.415700	0.371400	0.839600
H261	H26	0.426900	0.331200	0.831300
C451	C45	0.432700	0.459400	0.894900
O161	O16	0.262900	0.667000	0.084400
C461	C46	0.445300	0.398800	0.881000
H271	H27	0.475700	0.376300	0.901400
C471	C47	0.386200	0.489800	0.867700
H281	H28	0.377200	0.530300	0.876300
C481	C48	0.349900	0.462100	0.826200
H291	H29	0.314000	0.481600	0.808900
C491	C49	0.292300	0.615300	0.092400
C501	C50	0.363500	0.529600	0.073100
H301	H30	0.352800	0.512200	0.105600
C511	C51	0.387000	0.586800	0.977900
H311	H31	0.394700	0.605600	0.945500
O171	O17	0.526000	0.446500	0.977800
C521	C52	0.422700	0.529100	0.989700
C531	C53	0.335100	0.586100	0.058200
C541	C54	0.345600	0.612000	0.010800
H321	H32	0.323200	0.648000	0.001800
C551	C55	0.532300	0.550800	0.919900
C561	C56	0.372600	0.399900	0.811700
O181	O18	0.695000	0.729200	0.889700
O191	O19	0.638800	0.723900	0.815800
C571	C57	0.613800	0.649000	0.882400
C581	C58	0.648600	0.701200	0.861900
C591	C59	0.625000	0.627400	0.927100
H331	H33	0.656900	0.644700	0.950000
C601	C60	0.584800	0.572800	0.941600
H341	H34	0.600500	0.551500	0.971100
C611	C61	0.519500	0.577700	0.867200
H351	H35	0.488200	0.560200	0.844100
C621	C62	0.555300	0.629800	0.853300
H361	H36	0.540900	0.652700	0.824500
O201	O20	0.298700	0.400100	0.734400
O211	O21	0.350800	0.321200	0.755000
C631	C63	0.337900	0.373400	0.765800
U41	U4	0.297460	0.318490	0.668690
P41	P4	0.016400	0.506600	0.448710
C641	C64	0.094700	0.498300	0.540600
H371	H37	0.075900	0.535900	0.549900
O221	O22	0.231000	0.407100	0.638900
C651	C65	0.084300	0.628600	0.339600
H381	H38	0.073100	0.668800	0.331300
C661	C66	0.067300	0.540600	0.394900
O231	O23	0.237100	0.333000	0.584400
C671	C67	0.054700	0.601200	0.381000
H391	H39	0.024300	0.623700	0.401400
C681	C68	0.113800	0.510200	0.367700
H401	H40	0.122800	0.469700	0.376300
C691	C69	0.150100	0.537900	0.326200
H411	H41	0.186000	0.518400	0.308900
C701	C70	0.207700	0.384700	0.592400
C711	C71	0.136500	0.470400	0.573100
H421	H42	0.147200	0.487800	0.605600
C721	C72	0.113000	0.413200	0.477900
H431	H43	0.105300	0.394400	0.445500
O241	O24	0.974000	0.553500	0.477800
C731	C73	0.077300	0.470900	0.489700
C741	C74	0.164900	0.413900	0.558200
C751	C75	0.154400	0.388000	0.510800
H441	H44	0.176800	0.352000	0.501800
C761	C76	0.967700	0.449200	0.419900
C771	C77	0.127400	0.600100	0.311700
O251	O25	0.805000	0.270800	0.389700
O261	O26	0.861200	0.276100	0.315800
C781	C78	0.886200	0.351000	0.382400
C791	C79	0.851400	0.298800	0.361900
C801	C80	0.875000	0.372600	0.427100
H451	H45	0.843100	0.355300	0.450000
C811	C81	0.915200	0.427200	0.441600
H461	H46	0.899500	0.448500	0.471100
C821	C82	0.980500	0.422300	0.367200
H471	H47	0.011800	0.439800	0.344100
C831	C83	0.944700	0.370200	0.353300
H481	H48	0.959100	0.347300	0.324500
O271	O27	0.201300	0.599900	0.234400
O281	O28	0.149200	0.678800	0.255000
C841	C84	0.162100	0.626600	0.265800
U51	U5	0.297460	0.681510	0.831310
P51	P5	0.016400	0.493400	0.051290
C851	C85	0.094700	0.501700	0.959400
H491	H49	0.075900	0.464100	0.950100
O291	O29	0.231000	0.592900	0.861100
C861	C86	0.084300	0.371400	0.160400
H501	H50	0.073100	0.331200	0.168700
C871	C87	0.067300	0.459400	0.105100
O301	O30	0.237100	0.667000	0.915600
C881	C88	0.054700	0.398800	0.119000
H511	H51	0.024300	0.376300	0.098600
C891	C89	0.113800	0.489800	0.132300
H521	H52	0.122800	0.530300	0.123700
C901	C90	0.150100	0.462100	0.173800
H531	H53	0.186000	0.481600	0.191100
C911	C91	0.207700	0.615300	0.907600
C921	C92	0.136500	0.529600	0.926900
H541	H54	0.147200	0.512200	0.894400
C931	C93	0.113000	0.586800	0.022100
H551	H55	0.105300	0.605600	0.054500
O311	O31	0.974000	0.446500	0.022200
C941	C94	0.077300	0.529100	0.010300
C951	C95	0.164900	0.586100	0.941800
C961	C96	0.154400	0.612000	0.989200
H561	H56	0.176800	0.648000	0.998200
C971	C97	0.967700	0.550800	0.080100
C981	C98	0.127400	0.399900	0.188300
O321	O32	0.805000	0.729200	0.110300
O331	O33	0.861200	0.723900	0.184200
C991	C99	0.886200	0.649000	0.117600
C1001	C100	0.851400	0.701200	0.138100
C1011	C101	0.875000	0.627400	0.072900
H571	H57	0.843100	0.644700	0.050000
C1021	C102	0.915200	0.572800	0.058400
H581	H58	0.899500	0.551500	0.028900
C1031	C103	0.980500	0.577700	0.132800
H591	H59	0.011800	0.560200	0.155900
C1041	C104	0.944700	0.629800	0.146700
H601	H60	0.959100	0.652700	0.175500
O341	O34	0.201300	0.400100	0.265600
O351	O35	0.149200	0.321200	0.245000
C1051	C105	0.162100	0.373400	0.234200
U61	U6	0.202540	0.318490	0.331310
P61	P6	0.483600	0.506600	0.551290
C1061	C106	0.405300	0.498300	0.459400
H611	H61	0.424100	0.535900	0.450100
O361	O36	0.269000	0.407100	0.361100
C1071	C107	0.415700	0.628600	0.660400
H621	H62	0.426900	0.668800	0.668700
C1081	C108	0.432700	0.540600	0.605100
O371	O37	0.262900	0.333000	0.415600
C1091	C109	0.445300	0.601200	0.619000
H631	H63	0.475700	0.623700	0.598600
C1101	C110	0.386200	0.510200	0.632300
H641	H64	0.377200	0.469700	0.623700
C1111	C111	0.349900	0.537900	0.673800
H651	H65	0.314000	0.518400	0.691100
C1121	C112	0.292300	0.384700	0.407600
C1131	C113	0.363500	0.470400	0.426900
H661	H66	0.352800	0.487800	0.394400
C1141	C114	0.387000	0.413200	0.522100
H671	H67	0.394700	0.394400	0.554500
O381	O38	0.526000	0.553500	0.522200
C1151	C115	0.422700	0.470900	0.510300
C1161	C116	0.335100	0.413900	0.441800
C1171	C117	0.345600	0.388000	0.489200
H681	H68	0.323200	0.352000	0.498200
C1181	C118	0.532300	0.449200	0.580100
C1191	C119	0.372600	0.600100	0.688300
O391	O39	0.695000	0.270800	0.610300
O401	O40	0.638800	0.276100	0.684200
C1201	C120	0.613800	0.351000	0.617600
C1211	C121	0.648600	0.298800	0.638100
C1221	C122	0.625000	0.372600	0.572900
H691	H69	0.656900	0.355300	0.550000
C1231	C123	0.584800	0.427200	0.558400
H701	H70	0.600500	0.448500	0.528900
C1241	C124	0.519500	0.422300	0.632800
H711	H71	0.488200	0.439800	0.655900
C1251	C125	0.555300	0.370200	0.646700
H721	H72	0.540900	0.347300	0.675500
O411	O41	0.298700	0.599900	0.765600
O421	O42	0.350800	0.678800	0.745000
C1261	C126	0.337900	0.626600	0.734200
U71	U7	0.702540	0.181510	0.668690
P71	P7	0.983600	0.993400	0.448710
C1271	C127	0.905300	0.001700	0.540600
H731	H73	0.924100	0.964100	0.549900
O431	O43	0.769000	0.092900	0.638900
C1281	C128	0.915700	0.871400	0.339600
H741	H74	0.926900	0.831200	0.331300
C1291	C129	0.932700	0.959400	0.394900
O441	O44	0.762900	0.167000	0.584400
C1301	C130	0.945300	0.898800	0.381000
H751	H75	0.975700	0.876300	0.401400
C1311	C131	0.886200	0.989800	0.367700
H761	H76	0.877200	0.030300	0.376300
C1321	C132	0.849900	0.962100	0.326200
H771	H77	0.814000	0.981600	0.308900
C1331	C133	0.792300	0.115300	0.592400
C1341	C134	0.863500	0.029600	0.573100
H781	H78	0.852800	0.012200	0.605600
C1351	C135	0.887000	0.086800	0.477900
H791	H79	0.894700	0.105600	0.445500
O451	O45	0.026000	0.946500	0.477800
C1361	C136	0.922700	0.029100	0.489700
C1371	C137	0.835100	0.086100	0.558200
C1381	C138	0.845600	0.112000	0.510800
H801	H80	0.823200	0.148000	0.501800
C1391	C139	0.032300	0.050800	0.419900
C1401	C140	0.872600	0.899900	0.311700
O461	O46	0.195000	0.229200	0.389700
O471	O47	0.138800	0.223900	0.315800
C1411	C141	0.113800	0.149000	0.382400
C1421	C142	0.148600	0.201200	0.361900
C1431	C143	0.125000	0.127400	0.427100
H811	H81	0.156900	0.144700	0.450000
C1441	C144	0.084800	0.072800	0.441600
H821	H82	0.100500	0.051500	0.471100
C1451	C145	0.019500	0.077700	0.367200
H831	H83	0.988200	0.060200	0.344100
C1461	C146	0.055300	0.129800	0.353300
H841	H84	0.040900	0.152700	0.324500
O481	O48	0.798700	0.900100	0.234400
O491	O49	0.850800	0.821200	0.255000
C1471	C147	0.837900	0.873400	0.265800
U81	U8	0.797460	0.818490	0.168690
P81	P8	0.516400	0.006600	0.948710
C1481	C148	0.594700	0.998300	0.040600
H851	H85	0.575900	0.035900	0.049900
O501	O50	0.731000	0.907100	0.138900
C1491	C149	0.584300	0.128600	0.839600
H861	H86	0.573100	0.168800	0.831300
C1501	C150	0.567300	0.040600	0.894900
O511	O51	0.737100	0.833000	0.084400
C1511	C151	0.554700	0.101200	0.881000
H871	H87	0.524300	0.123700	0.901400
C1521	C152	0.613800	0.010200	0.867700
H881	H88	0.622800	0.969700	0.876300
C1531	C153	0.650100	0.037900	0.826200
H891	H89	0.686000	0.018400	0.808900
C1541	C154	0.707700	0.884700	0.092400
C1551	C155	0.636500	0.970400	0.073100
H901	H90	0.647200	0.987800	0.105600
C1561	C156	0.613000	0.913200	0.977900
H911	H91	0.605300	0.894400	0.945500
O521	O52	0.474000	0.053500	0.977800
C1571	C157	0.577300	0.970900	0.989700
C1581	C158	0.664900	0.913900	0.058200
C1591	C159	0.654400	0.888000	0.010800
H921	H92	0.676800	0.852000	0.001800
C1601	C160	0.467700	0.949200	0.919900
C1611	C161	0.627400	0.100100	0.811700
O531	O53	0.305000	0.770800	0.889700
O541	O54	0.361200	0.776100	0.815800
C1621	C162	0.386200	0.851000	0.882400
C1631	C163	0.351400	0.798800	0.861900
C1641	C164	0.375000	0.872600	0.927100
H931	H93	0.343100	0.855300	0.950000
C1651	C165	0.415200	0.927200	0.941600
H941	H94	0.399500	0.948500	0.971100
C1661	C166	0.480500	0.922300	0.867200
H951	H95	0.511800	0.939800	0.844100
C1671	C167	0.444700	0.870200	0.853300
H961	H96	0.459100	0.847300	0.824500
O551	O55	0.701300	0.099900	0.734400
O561	O56	0.649200	0.178800	0.755000
C1681	C168	0.662100	0.126600	0.765800
