data_WUSXEP_clean_PM
_symmetry_space_group_name_H-M	'P1'
_cell_length_a	12.233000
_cell_length_b	26.126000
_cell_length_c	26.126000
_cell_angle_alpha	90.000000
_cell_angle_beta	90.000000
_cell_angle_gamma	90.000000
_symmetry_Int_Tables_number 1

loop_
_symmetry_equiv_pos_as_xyz
'x,y,z'

loop_
_atom_site_label
_atom_site_type_symbol
_atom_site_fract_x
_atom_site_fract_y
_atom_site_fract_z
O11	O1	0.702620	0.262580	0.195450
O21	O2	0.543690	0.190220	0.197040
C11	C1	0.657700	0.302650	0.179740
C21	C2	0.700600	0.327920	0.131550
O31	O3	0.572580	0.323960	0.198360
O41	O4	0.417240	0.251370	0.197700
C31	C3	0.644700	0.369410	0.112350
C41	C4	0.789900	0.306300	0.105750
H11	H1	0.584300	0.382800	0.129300
C51	C5	0.682400	0.391050	0.065880
C61	C6	0.823990	0.328280	0.059090
H21	H2	0.826100	0.278000	0.119200
C71	C7	0.769000	0.370700	0.038940
C81	C8	0.616500	0.434460	0.043070
O51	O5	0.904280	0.309700	0.029400
H31	H3	0.790500	0.384900	0.007900
O61	O6	0.528900	0.446370	0.064410
O71	O7	0.656900	0.454920	0.002600
C91	C9	0.963100	0.265860	0.044280
O81	O8	0.370440	0.059290	0.008320
Co11	Co1	0.424150	0.494930	0.036410
H41	H4	0.913100	0.238400	0.053100
H51	H5	0.007800	0.273400	0.074000
O91	O9	0.495110	0.051110	0.068400
C101	C10	0.107300	0.205210	0.014710
H61	H6	0.063100	0.175400	0.022600
H71	H7	0.155900	0.196600	0.986700
O101	O10	0.169420	0.220400	0.058790
C111	C11	0.251900	0.191320	0.076570
C121	C12	0.284400	0.146020	0.053130
C131	C13	0.304200	0.212360	0.117540
H81	H8	0.248200	0.133300	0.024500
C141	C14	0.373000	0.120570	0.074170
C151	C15	0.394000	0.185860	0.137970
H91	H9	0.281200	0.243300	0.131500
C161	C16	0.431600	0.140150	0.116080
C171	C17	0.416300	0.074120	0.048330
C181	C18	0.454600	0.210840	0.179960
H101	H10	0.492900	0.123400	0.128800
O111	O11	0.297380	0.737420	0.695450
O121	O12	0.456310	0.809780	0.697040
C191	C19	0.342300	0.697350	0.679740
C201	C20	0.299400	0.672080	0.631550
O131	O13	0.427420	0.676040	0.698360
O141	O14	0.582760	0.748630	0.697700
C211	C21	0.355300	0.630590	0.612350
C221	C22	0.210100	0.693700	0.605750
H111	H11	0.415700	0.617200	0.629300
C231	C23	0.317600	0.608950	0.565880
C241	C24	0.176010	0.671720	0.559090
H121	H12	0.173900	0.722000	0.619200
C251	C25	0.231000	0.629300	0.538940
C261	C26	0.383500	0.565540	0.543070
O151	O15	0.095720	0.690300	0.529400
H131	H13	0.209500	0.615100	0.507900
O161	O16	0.471100	0.553630	0.564410
O171	O17	0.343100	0.545080	0.502600
C271	C27	0.036900	0.734140	0.544280
O181	O18	0.629560	0.940710	0.508320
Co21	Co2	0.575850	0.505070	0.536410
H141	H14	0.086900	0.761600	0.553100
H151	H15	0.992200	0.726600	0.574000
O191	O19	0.504890	0.948890	0.568400
C281	C28	0.892700	0.794790	0.514710
H161	H16	0.936900	0.824600	0.522600
H171	H17	0.844100	0.803400	0.486700
O201	O20	0.830580	0.779600	0.558790
C291	C29	0.748100	0.808680	0.576570
C301	C30	0.715600	0.853980	0.553130
C311	C31	0.695800	0.787640	0.617540
H181	H18	0.751800	0.866700	0.524500
C321	C32	0.627000	0.879430	0.574170
C331	C33	0.606000	0.814140	0.637970
H191	H19	0.718800	0.756700	0.631500
C341	C34	0.568400	0.859850	0.616080
C351	C35	0.583700	0.925880	0.548330
C361	C36	0.545400	0.789160	0.679960
H201	H20	0.507100	0.876600	0.628800
O211	O21	0.297380	0.762580	0.304550
O221	O22	0.456310	0.690220	0.302960
C371	C37	0.342300	0.802650	0.320260
C381	C38	0.299400	0.827920	0.368450
O231	O23	0.427420	0.823960	0.301640
O241	O24	0.582760	0.751370	0.302300
C391	C39	0.355300	0.869410	0.387650
C401	C40	0.210100	0.806300	0.394250
H211	H21	0.415700	0.882800	0.370700
C411	C41	0.317600	0.891050	0.434120
C421	C42	0.176010	0.828280	0.440910
H221	H22	0.173900	0.778000	0.380800
C431	C43	0.231000	0.870700	0.461060
C441	C44	0.383500	0.934460	0.456930
O251	O25	0.095720	0.809700	0.470600
H231	H23	0.209500	0.884900	0.492100
O261	O26	0.471100	0.946370	0.435590
O271	O27	0.343100	0.954920	0.497400
C451	C45	0.036900	0.765860	0.455720
O281	O28	0.629560	0.559290	0.491680
Co31	Co3	0.575850	0.994930	0.463590
H241	H24	0.086900	0.738400	0.446900
H251	H25	0.992200	0.773400	0.426000
O291	O29	0.504890	0.551110	0.431600
C461	C46	0.892700	0.705210	0.485290
H261	H26	0.936900	0.675400	0.477400
H271	H27	0.844100	0.696600	0.513300
O301	O30	0.830580	0.720400	0.441210
C471	C47	0.748100	0.691320	0.423430
C481	C48	0.715600	0.646020	0.446870
C491	C49	0.695800	0.712360	0.382460
H281	H28	0.751800	0.633300	0.475500
C501	C50	0.627000	0.620570	0.425830
C511	C51	0.606000	0.685860	0.362030
H291	H29	0.718800	0.743300	0.368500
C521	C52	0.568400	0.640150	0.383920
C531	C53	0.583700	0.574120	0.451670
C541	C54	0.545400	0.710840	0.320040
H301	H30	0.507100	0.623400	0.371200
O311	O31	0.702620	0.237420	0.804550
O321	O32	0.543690	0.309780	0.802960
C551	C55	0.657700	0.197350	0.820260
C561	C56	0.700600	0.172080	0.868450
O331	O33	0.572580	0.176040	0.801640
O341	O34	0.417240	0.248630	0.802300
C571	C57	0.644700	0.130590	0.887650
C581	C58	0.789900	0.193700	0.894250
H311	H31	0.584300	0.117200	0.870700
C591	C59	0.682400	0.108950	0.934120
C601	C60	0.823990	0.171720	0.940910
H321	H32	0.826100	0.222000	0.880800
C611	C61	0.769000	0.129300	0.961060
C621	C62	0.616500	0.065540	0.956930
O351	O35	0.904280	0.190300	0.970600
H331	H33	0.790500	0.115100	0.992100
O361	O36	0.528900	0.053630	0.935590
O371	O37	0.656900	0.045080	0.997400
C631	C63	0.963100	0.234140	0.955720
O381	O38	0.370440	0.440710	0.991680
Co41	Co4	0.424150	0.005070	0.963590
H341	H34	0.913100	0.261600	0.946900
H351	H35	0.007800	0.226600	0.926000
O391	O39	0.495110	0.448890	0.931600
C641	C64	0.107300	0.294790	0.985290
H361	H36	0.063100	0.324600	0.977400
H371	H37	0.155900	0.303400	0.013300
O401	O40	0.169420	0.279600	0.941210
C651	C65	0.251900	0.308680	0.923430
C661	C66	0.284400	0.353980	0.946870
C671	C67	0.304200	0.287640	0.882460
H381	H38	0.248200	0.366700	0.975500
C681	C68	0.373000	0.379430	0.925830
C691	C69	0.394000	0.314140	0.862030
H391	H39	0.281200	0.256700	0.868500
C701	C70	0.431600	0.359850	0.883920
C711	C71	0.416300	0.425880	0.951670
C721	C72	0.454600	0.289160	0.820040
H401	H40	0.492900	0.376600	0.871200
O411	O41	0.297380	0.737420	0.804550
O421	O42	0.456310	0.809780	0.802960
C731	C73	0.342300	0.697350	0.820260
C741	C74	0.299400	0.672080	0.868450
O431	O43	0.427420	0.676040	0.801640
O441	O44	0.582760	0.748630	0.802300
C751	C75	0.355300	0.630590	0.887650
C761	C76	0.210100	0.693700	0.894250
H411	H41	0.415700	0.617200	0.870700
C771	C77	0.317600	0.608950	0.934120
C781	C78	0.176010	0.671720	0.940910
H421	H42	0.173900	0.722000	0.880800
C791	C79	0.231000	0.629300	0.961060
C801	C80	0.383500	0.565540	0.956930
O451	O45	0.095720	0.690300	0.970600
H431	H43	0.209500	0.615100	0.992100
O461	O46	0.471100	0.553630	0.935590
O471	O47	0.343100	0.545080	0.997400
C811	C81	0.036900	0.734140	0.955720
O481	O48	0.629560	0.940710	0.991680
Co51	Co5	0.575850	0.505070	0.963590
H441	H44	0.086900	0.761600	0.946900
H451	H45	0.992200	0.726600	0.926000
O491	O49	0.504890	0.948890	0.931600
C821	C82	0.892700	0.794790	0.985290
H461	H46	0.936900	0.824600	0.977400
H471	H47	0.844100	0.803400	0.013300
O501	O50	0.830580	0.779600	0.941210
C831	C83	0.748100	0.808680	0.923430
C841	C84	0.715600	0.853980	0.946870
C851	C85	0.695800	0.787640	0.882460
H481	H48	0.751800	0.866700	0.975500
C861	C86	0.627000	0.879430	0.925830
C871	C87	0.606000	0.814140	0.862030
H491	H49	0.718800	0.756700	0.868500
C881	C88	0.568400	0.859850	0.883920
C891	C89	0.583700	0.925880	0.951670
C901	C90	0.545400	0.789160	0.820040
H501	H50	0.507100	0.876600	0.871200
O511	O51	0.702620	0.262580	0.304550
O521	O52	0.543690	0.190220	0.302960
C911	C91	0.657700	0.302650	0.320260
C921	C92	0.700600	0.327920	0.368450
O531	O53	0.572580	0.323960	0.301640
O541	O54	0.417240	0.251370	0.302300
C931	C93	0.644700	0.369410	0.387650
C941	C94	0.789900	0.306300	0.394250
H511	H51	0.584300	0.382800	0.370700
C951	C95	0.682400	0.391050	0.434120
C961	C96	0.823990	0.328280	0.440910
H521	H52	0.826100	0.278000	0.380800
C971	C97	0.769000	0.370700	0.461060
C981	C98	0.616500	0.434460	0.456930
O551	O55	0.904280	0.309700	0.470600
H531	H53	0.790500	0.384900	0.492100
O561	O56	0.528900	0.446370	0.435590
O571	O57	0.656900	0.454920	0.497400
C991	C99	0.963100	0.265860	0.455720
O581	O58	0.370440	0.059290	0.491680
Co61	Co6	0.424150	0.494930	0.463590
H541	H54	0.913100	0.238400	0.446900
H551	H55	0.007800	0.273400	0.426000
O591	O59	0.495110	0.051110	0.431600
C1001	C100	0.107300	0.205210	0.485290
H561	H56	0.063100	0.175400	0.477400
H571	H57	0.155900	0.196600	0.513300
O601	O60	0.169420	0.220400	0.441210
C1011	C101	0.251900	0.191320	0.423430
C1021	C102	0.284400	0.146020	0.446870
C1031	C103	0.304200	0.212360	0.382460
H581	H58	0.248200	0.133300	0.475500
C1041	C104	0.373000	0.120570	0.425830
C1051	C105	0.394000	0.185860	0.362030
H591	H59	0.281200	0.243300	0.368500
C1061	C106	0.431600	0.140150	0.383920
C1071	C107	0.416300	0.074120	0.451670
C1081	C108	0.454600	0.210840	0.320040
H601	H60	0.492900	0.123400	0.371200
O611	O61	0.702620	0.237420	0.695450
O621	O62	0.543690	0.309780	0.697040
C1091	C109	0.657700	0.197350	0.679740
C1101	C110	0.700600	0.172080	0.631550
O631	O63	0.572580	0.176040	0.698360
O641	O64	0.417240	0.248630	0.697700
C1111	C111	0.644700	0.130590	0.612350
C1121	C112	0.789900	0.193700	0.605750
H611	H61	0.584300	0.117200	0.629300
C1131	C113	0.682400	0.108950	0.565880
C1141	C114	0.823990	0.171720	0.559090
H621	H62	0.826100	0.222000	0.619200
C1151	C115	0.769000	0.129300	0.538940
C1161	C116	0.616500	0.065540	0.543070
O651	O65	0.904280	0.190300	0.529400
H631	H63	0.790500	0.115100	0.507900
O661	O66	0.528900	0.053630	0.564410
O671	O67	0.656900	0.045080	0.502600
C1171	C117	0.963100	0.234140	0.544280
O681	O68	0.370440	0.440710	0.508320
Co71	Co7	0.424150	0.005070	0.536410
H641	H64	0.913100	0.261600	0.553100
H651	H65	0.007800	0.226600	0.574000
O691	O69	0.495110	0.448890	0.568400
C1181	C118	0.107300	0.294790	0.514710
H661	H66	0.063100	0.324600	0.522600
H671	H67	0.155900	0.303400	0.486700
O701	O70	0.169420	0.279600	0.558790
C1191	C119	0.251900	0.308680	0.576570
C1201	C120	0.284400	0.353980	0.553130
C1211	C121	0.304200	0.287640	0.617540
H681	H68	0.248200	0.366700	0.524500
C1221	C122	0.373000	0.379430	0.574170
C1231	C123	0.394000	0.314140	0.637970
H691	H69	0.281200	0.256700	0.631500
C1241	C124	0.431600	0.359850	0.616080
C1251	C125	0.416300	0.425880	0.548330
C1261	C126	0.454600	0.289160	0.679960
H701	H70	0.492900	0.376600	0.628800
O711	O71	0.297380	0.762580	0.195450
O721	O72	0.456310	0.690220	0.197040
C1271	C127	0.342300	0.802650	0.179740
C1281	C128	0.299400	0.827920	0.131550
O731	O73	0.427420	0.823960	0.198360
O741	O74	0.582760	0.751370	0.197700
C1291	C129	0.355300	0.869410	0.112350
C1301	C130	0.210100	0.806300	0.105750
H711	H71	0.415700	0.882800	0.129300
C1311	C131	0.317600	0.891050	0.065880
C1321	C132	0.176010	0.828280	0.059090
H721	H72	0.173900	0.778000	0.119200
C1331	C133	0.231000	0.870700	0.038940
C1341	C134	0.383500	0.934460	0.043070
O751	O75	0.095720	0.809700	0.029400
H731	H73	0.209500	0.884900	0.007900
O761	O76	0.471100	0.946370	0.064410
O771	O77	0.343100	0.954920	0.002600
C1351	C135	0.036900	0.765860	0.044280
O781	O78	0.629560	0.559290	0.008320
Co81	Co8	0.575850	0.994930	0.036410
H741	H74	0.086900	0.738400	0.053100
H751	H75	0.992200	0.773400	0.074000
O791	O79	0.504890	0.551110	0.068400
C1361	C136	0.892700	0.705210	0.014710
H761	H76	0.936900	0.675400	0.022600
H771	H77	0.844100	0.696600	0.986700
O801	O80	0.830580	0.720400	0.058790
C1371	C137	0.748100	0.691320	0.076570
C1381	C138	0.715600	0.646020	0.053130
C1391	C139	0.695800	0.712360	0.117540
H781	H78	0.751800	0.633300	0.024500
C1401	C140	0.627000	0.620570	0.074170
C1411	C141	0.606000	0.685860	0.137970
H791	H79	0.718800	0.743300	0.131500
C1421	C142	0.568400	0.640150	0.116080
C1431	C143	0.583700	0.574120	0.048330
C1441	C144	0.545400	0.710840	0.179960
H801	H80	0.507100	0.623400	0.128800
Co91	Co9	0.636170	0.220580	0.250000
Co101	Co10	0.482680	0.293580	0.250000
Co111	Co11	0.363830	0.779420	0.750000
Co121	Co12	0.517320	0.706420	0.750000
Co131	Co13	0.363830	0.720580	0.250000
Co141	Co14	0.517320	0.793580	0.250000
Co151	Co15	0.636170	0.279420	0.750000
Co161	Co16	0.482680	0.206420	0.750000
C1451	C145	0.034600	0.250000	0.000000
C1461	C146	0.965400	0.750000	0.500000
C1471	C147	0.965400	0.750000	0.000000
C1481	C148	0.034600	0.250000	0.500000
