data_WUWQEL_clean_PM
_symmetry_space_group_name_H-M	'P1'
_cell_length_a	10.820000
_cell_length_b	11.416000
_cell_length_c	12.432000
_cell_angle_alpha	87.440000
_cell_angle_beta	72.450000
_cell_angle_gamma	70.110000
_symmetry_Int_Tables_number 1

loop_
_symmetry_equiv_pos_as_xyz
'x,y,z'

loop_
_atom_site_label
_atom_site_type_symbol
_atom_site_fract_x
_atom_site_fract_y
_atom_site_fract_z
Cd11	Cd1	0.893030	0.046480	0.132710
Cd21	Cd2	0.234660	0.928720	0.109090
Cd31	Cd3	0.605440	0.863610	0.020830
Cd41	Cd4	0.106970	0.953520	0.867290
Cd51	Cd5	0.765340	0.071280	0.890910
Cd61	Cd6	0.394560	0.136390	0.979170
H11	H1	0.865700	0.068600	0.515500
H21	H2	0.843000	0.297500	0.922100
H31	H3	0.399300	0.511500	0.098400
H41	H4	0.866000	0.307800	0.102800
H51	H5	0.945900	0.384100	0.019600
H61	H6	0.301800	0.048100	0.282900
H71	H7	0.442100	0.145000	0.316900
H81	H8	0.392800	0.203800	0.214500
H91	H9	0.134300	0.931400	0.484500
H101	H10	0.157000	0.702500	0.077900
H111	H11	0.600700	0.488500	0.901600
H121	H12	0.134000	0.692200	0.897200
H131	H13	0.054100	0.615900	0.980400
H141	H14	0.698200	0.951900	0.717100
H151	H15	0.557900	0.855000	0.683100
H161	H16	0.607200	0.796200	0.785500
C11	C1	0.955900	0.023500	0.473500
C21	C2	0.074500	0.222100	0.057500
C31	C3	0.926900	0.242100	0.937100
C41	C4	0.487400	0.908800	0.276800
C51	C5	0.457800	0.669200	0.048400
C61	C6	0.459900	0.537700	0.040600
C71	C7	0.989500	0.010200	0.347900
C81	C8	0.599700	0.106300	0.168600
C91	C9	0.943600	0.300900	0.036100
C101	C10	0.396700	0.024300	0.232100
C111	C11	0.451100	0.128900	0.238500
C121	C12	0.049300	0.236400	0.834300
C131	C13	0.044100	0.976500	0.526500
C141	C14	0.925500	0.777900	0.942500
C151	C15	0.073100	0.757900	0.062900
C161	C16	0.512600	0.091200	0.723200
C171	C17	0.542200	0.330800	0.951600
C181	C18	0.540100	0.462300	0.959400
C191	C19	0.010500	0.989800	0.652100
C201	C20	0.400300	0.893700	0.831400
C211	C21	0.056400	0.699100	0.963900
C221	C22	0.603300	0.975700	0.767900
C231	C23	0.548900	0.871100	0.761500
C241	C24	0.950700	0.763600	0.165700
O11	O1	0.077500	0.121400	0.105000
O21	O2	0.654900	0.039100	0.076800
O31	O3	0.583400	0.826000	0.206000
O41	O4	0.353600	0.734300	0.121100
O51	O5	0.474400	0.901600	0.377600
O61	O6	0.112800	0.946500	0.291400
O71	O7	0.892600	0.065500	0.312000
O81	O8	0.178500	0.256900	0.025300
O91	O9	0.054300	0.333500	0.787800
O101	O10	0.913400	0.123100	0.957700
O111	O11	0.395700	0.001600	0.120900
O121	O12	0.146700	0.133100	0.800800
O131	O13	0.548800	0.705400	0.984800
O141	O14	0.666700	0.155300	0.206900
O151	O15	0.922500	0.878600	0.895000
O161	O16	0.345100	0.960900	0.923200
O171	O17	0.416600	0.174000	0.794000
O181	O18	0.646400	0.265700	0.878900
O191	O19	0.525600	0.098400	0.622400
O201	O20	0.887200	0.053500	0.708600
O211	O21	0.107400	0.934500	0.688000
O221	O22	0.821500	0.743100	0.974700
O231	O23	0.945700	0.666500	0.212200
O241	O24	0.086600	0.876900	0.042300
O251	O25	0.604300	0.998400	0.879100
O261	O26	0.853300	0.866900	0.199200
O271	O27	0.451200	0.294600	0.015200
O281	O28	0.333300	0.844700	0.793100
