data_WUYTUH_clean_PM
_symmetry_space_group_name_H-M	'P1'
_cell_length_a	11.868000
_cell_length_b	14.931000
_cell_length_c	17.741000
_cell_angle_alpha	90.000000
_cell_angle_beta	90.000000
_cell_angle_gamma	90.000000
_symmetry_Int_Tables_number 1

loop_
_symmetry_equiv_pos_as_xyz
'x,y,z'

loop_
_atom_site_label
_atom_site_type_symbol
_atom_site_fract_x
_atom_site_fract_y
_atom_site_fract_z
Mo11	Mo1	0.290450	0.119160	0.637220
Cu11	Cu1	0.290400	0.860670	0.430140
N11	N1	0.258800	0.980660	0.493100
N21	N2	0.081600	0.988410	0.691200
N31	N3	0.090300	0.250400	0.700090
N41	N4	0.224000	0.261100	0.502290
N51	N5	0.420200	0.936010	0.694430
N61	N6	0.301300	0.110200	0.821850
N71	N7	0.419600	0.302300	0.694560
N81	N8	0.543700	0.131600	0.561870
C11	C1	0.267400	0.031000	0.541600
C21	C2	0.151000	0.034200	0.668000
C31	C3	0.157100	0.203700	0.676200
C41	C4	0.245700	0.209000	0.546800
C51	C5	0.376600	0.999100	0.671400
C61	C6	0.302400	0.113800	0.758100
C71	C7	0.374800	0.239200	0.673300
C81	C8	0.453900	0.125800	0.584600
Mo21	Mo2	0.209550	0.380840	0.137220
Cu21	Cu2	0.209600	0.639330	0.930140
N91	N9	0.241200	0.519340	0.993100
N101	N10	0.418400	0.511590	0.191200
N111	N11	0.409700	0.249600	0.200090
N121	N12	0.276000	0.238900	0.002290
N131	N13	0.079800	0.563990	0.194430
N141	N14	0.198700	0.389800	0.321850
N151	N15	0.080400	0.197700	0.194560
N161	N16	0.956300	0.368400	0.061870
C91	C9	0.232600	0.469000	0.041600
C101	C10	0.349000	0.465800	0.168000
C111	C11	0.342900	0.296300	0.176200
C121	C12	0.254300	0.291000	0.046800
C131	C13	0.123400	0.500900	0.171400
C141	C14	0.197600	0.386200	0.258100
C151	C15	0.125200	0.260800	0.173300
C161	C16	0.046100	0.374200	0.084600
Mo31	Mo3	0.709550	0.119160	0.862780
Cu31	Cu3	0.709600	0.860670	0.069860
N171	N17	0.741200	0.980660	0.006900
N181	N18	0.918400	0.988410	0.808800
N191	N19	0.909700	0.250400	0.799910
N201	N20	0.776000	0.261100	0.997710
N211	N21	0.579800	0.936010	0.805570
N221	N22	0.698700	0.110200	0.678150
N231	N23	0.580400	0.302300	0.805440
N241	N24	0.456300	0.131600	0.938130
C171	C17	0.732600	0.031000	0.958400
C181	C18	0.849000	0.034200	0.832000
C191	C19	0.842900	0.203700	0.823800
C201	C20	0.754300	0.209000	0.953200
C211	C21	0.623400	0.999100	0.828600
C221	C22	0.697600	0.113800	0.741900
C231	C23	0.625200	0.239200	0.826700
C241	C24	0.546100	0.125800	0.915400
Mo41	Mo4	0.790450	0.380840	0.362780
Cu41	Cu4	0.790400	0.639330	0.569860
N251	N25	0.758800	0.519340	0.506900
N261	N26	0.581600	0.511590	0.308800
N271	N27	0.590300	0.249600	0.299910
N281	N28	0.724000	0.238900	0.497710
N291	N29	0.920200	0.563990	0.305570
N301	N30	0.801300	0.389800	0.178150
N311	N31	0.919600	0.197700	0.305440
N321	N32	0.043700	0.368400	0.438130
C251	C25	0.767400	0.469000	0.458400
C261	C26	0.651000	0.465800	0.332000
C271	C27	0.657100	0.296300	0.323800
C281	C28	0.745700	0.291000	0.453200
C291	C29	0.876600	0.500900	0.328600
C301	C30	0.802400	0.386200	0.241900
C311	C31	0.874800	0.260800	0.326700
C321	C32	0.953900	0.374200	0.415400
Mo51	Mo5	0.709550	0.880840	0.362780
Cu51	Cu5	0.709600	0.139330	0.569860
N331	N33	0.741200	0.019340	0.506900
N341	N34	0.918400	0.011590	0.308800
N351	N35	0.909700	0.749600	0.299910
N361	N36	0.776000	0.738900	0.497710
N371	N37	0.579800	0.063990	0.305570
N381	N38	0.698700	0.889800	0.178150
N391	N39	0.580400	0.697700	0.305440
N401	N40	0.456300	0.868400	0.438130
C331	C33	0.732600	0.969000	0.458400
C341	C34	0.849000	0.965800	0.332000
C351	C35	0.842900	0.796300	0.323800
C361	C36	0.754300	0.791000	0.453200
C371	C37	0.623400	0.000900	0.328600
C381	C38	0.697600	0.886200	0.241900
C391	C39	0.625200	0.760800	0.326700
C401	C40	0.546100	0.874200	0.415400
Mo61	Mo6	0.790450	0.619160	0.862780
Cu61	Cu6	0.790400	0.360670	0.069860
N411	N41	0.758800	0.480660	0.006900
N421	N42	0.581600	0.488410	0.808800
N431	N43	0.590300	0.750400	0.799910
N441	N44	0.724000	0.761100	0.997710
N451	N45	0.920200	0.436010	0.805570
N461	N46	0.801300	0.610200	0.678150
N471	N47	0.919600	0.802300	0.805440
N481	N48	0.043700	0.631600	0.938130
C411	C41	0.767400	0.531000	0.958400
C421	C42	0.651000	0.534200	0.832000
C431	C43	0.657100	0.703700	0.823800
C441	C44	0.745700	0.709000	0.953200
C451	C45	0.876600	0.499100	0.828600
C461	C46	0.802400	0.613800	0.741900
C471	C47	0.874800	0.739200	0.826700
C481	C48	0.953900	0.625800	0.915400
Mo71	Mo7	0.290450	0.880840	0.137220
Cu71	Cu7	0.290400	0.139330	0.930140
N491	N49	0.258800	0.019340	0.993100
N501	N50	0.081600	0.011590	0.191200
N511	N51	0.090300	0.749600	0.200090
N521	N52	0.224000	0.738900	0.002290
N531	N53	0.420200	0.063990	0.194430
N541	N54	0.301300	0.889800	0.321850
N551	N55	0.419600	0.697700	0.194560
N561	N56	0.543700	0.868400	0.061870
C491	C49	0.267400	0.969000	0.041600
C501	C50	0.151000	0.965800	0.168000
C511	C51	0.157100	0.796300	0.176200
C521	C52	0.245700	0.791000	0.046800
C531	C53	0.376600	0.000900	0.171400
C541	C54	0.302400	0.886200	0.258100
C551	C55	0.374800	0.760800	0.173300
C561	C56	0.453900	0.874200	0.084600
Mo81	Mo8	0.209550	0.619160	0.637220
Cu81	Cu8	0.209600	0.360670	0.430140
N571	N57	0.241200	0.480660	0.493100
N581	N58	0.418400	0.488410	0.691200
N591	N59	0.409700	0.750400	0.700090
N601	N60	0.276000	0.761100	0.502290
N611	N61	0.079800	0.436010	0.694430
N621	N62	0.198700	0.610200	0.821850
N631	N63	0.080400	0.802300	0.694560
N641	N64	0.956300	0.631600	0.561870
C571	C57	0.232600	0.531000	0.541600
C581	C58	0.349000	0.534200	0.668000
C591	C59	0.342900	0.703700	0.676200
C601	C60	0.254300	0.709000	0.546800
C611	C61	0.123400	0.499100	0.671400
C621	C62	0.197600	0.613800	0.758100
C631	C63	0.125200	0.739200	0.673300
C641	C64	0.046100	0.625800	0.584600
Cu91	Cu9	0.000000	0.896660	0.750000
Cu101	Cu10	0.000000	0.342780	0.750000
Cu111	Cu11	0.500000	0.603340	0.250000
Cu121	Cu12	0.500000	0.157220	0.250000
Cu131	Cu13	0.000000	0.103340	0.250000
Cu141	Cu14	0.000000	0.657220	0.250000
Cu151	Cu15	0.500000	0.396660	0.750000
Cu161	Cu16	0.500000	0.842780	0.750000
