data_WUYWOE_clean_PM
_symmetry_space_group_name_H-M	'P1'
_cell_length_a	15.646900
_cell_length_b	18.471000
_cell_length_c	27.450000
_cell_angle_alpha	99.525000
_cell_angle_beta	90.063000
_cell_angle_gamma	103.876000
_symmetry_Int_Tables_number 1

loop_
_symmetry_equiv_pos_as_xyz
'x,y,z'

loop_
_atom_site_label
_atom_site_type_symbol
_atom_site_fract_x
_atom_site_fract_y
_atom_site_fract_z
C11	C1	0.527100	0.679700	0.990900
C21	C2	0.524000	0.684200	0.937400
C31	C3	0.552100	0.634200	0.904500
H11	H1	0.578100	0.599000	0.915200
C41	C4	0.542800	0.634600	0.853700
H21	H2	0.563200	0.599700	0.831400
C51	C5	0.504000	0.685500	0.835900
C61	C6	0.477400	0.740200	0.871500
H31	H3	0.453700	0.777100	0.861300
C71	C7	0.486700	0.738200	0.920700
H41	H4	0.468000	0.773500	0.943700
C81	C8	0.484200	0.678400	0.782600
C91	C9	0.499900	0.737000	0.754800
C101	C10	0.476400	0.726200	0.704800
C111	C11	0.434900	0.649800	0.680700
C121	C12	0.416800	0.590700	0.707500
C131	C13	0.442600	0.605500	0.757000
H51	H5	0.431900	0.565300	0.774400
C141	C14	0.365400	0.514100	0.685500
C151	C15	0.380000	0.477000	0.638600
H61	H6	0.424100	0.501100	0.620100
C161	C16	0.331200	0.406400	0.619600
H71	H7	0.343200	0.383000	0.588500
C171	C17	0.262300	0.367900	0.646500
C181	C18	0.248200	0.404400	0.693500
H81	H8	0.203300	0.380600	0.711900
C191	C19	0.299600	0.475200	0.713300
H91	H9	0.290700	0.497500	0.745200
C201	C20	0.207600	0.292300	0.623600
C211	C21	0.492500	0.790300	0.677700
C221	C22	0.577500	0.825300	0.665600
C231	C23	0.591800	0.888700	0.642200
C241	C24	0.520500	0.913600	0.628100
H101	H10	0.530300	0.954200	0.611100
C251	C25	0.432500	0.879000	0.638800
C261	C26	0.422500	0.817800	0.664400
C271	C27	0.482000	0.645900	0.598300
H111	H11	0.504600	0.601500	0.595400
H121	H12	0.528000	0.689800	0.610900
H131	H13	0.460900	0.650500	0.566400
C281	C28	0.627900	0.825200	0.795500
H141	H14	0.655100	0.878300	0.799000
H151	H15	0.659100	0.797500	0.772200
H161	H16	0.629900	0.809200	0.826900
C291	C29	0.693700	0.768500	0.640100
H171	H17	0.752500	0.771900	0.652000
H181	H18	0.696000	0.797400	0.613900
H191	H19	0.665200	0.716500	0.627900
C301	C30	0.310700	0.821500	0.719800
H201	H20	0.318000	0.873600	0.716600
H211	H21	0.346200	0.818400	0.747600
H221	H22	0.249900	0.799700	0.724800
C311	C31	0.359600	0.910200	0.624800
C321	C32	0.285600	0.865200	0.597100
H231	H23	0.279900	0.813200	0.589000
C331	C33	0.219100	0.897100	0.581200
H241	H24	0.169800	0.866700	0.562700
C341	C34	0.228900	0.975300	0.593900
C351	C35	0.300600	0.018500	0.622900
H251	H25	0.305400	0.070100	0.632500
C361	C36	0.365900	0.987200	0.638100
H261	H26	0.414200	0.017900	0.657300
C371	C37	0.158700	0.008900	0.575700
C381	C38	0.744400	0.961700	0.673100
H271	H27	0.731900	0.947900	0.703900
C391	C39	0.681400	0.933200	0.634600
C401	C40	0.705700	0.949600	0.588100
H281	H28	0.665800	0.929700	0.561300
C411	C41	0.786700	0.994200	0.580500
H291	H29	0.801600	0.002800	0.548800
C421	C42	0.846400	0.026500	0.620000
C431	C43	0.822600	0.008600	0.667600
H301	H30	0.861400	0.029300	0.694800
C441	C44	0.935300	0.075500	0.611700
C451	C45	0.056400	0.174900	0.489400
C461	C46	0.033300	0.180500	0.439700
C471	C47	0.994500	0.238400	0.429300
H311	H31	0.987900	0.276400	0.454800
C481	C48	0.966500	0.239200	0.382100
H321	H32	0.940200	0.277200	0.376200
C491	C49	0.976700	0.184400	0.343200
C501	C50	0.015800	0.127100	0.352800
H331	H33	0.023000	0.089500	0.327200
C511	C51	0.043000	0.126800	0.399900
H341	H34	0.069400	0.088800	0.405600
C521	C52	0.941700	0.181300	0.292900
C531	C53	0.960900	0.243800	0.268000
C541	C54	0.928900	0.239700	0.220500
C551	C55	0.871600	0.170600	0.196300
C561	C56	0.856800	0.106400	0.217900
C571	C57	0.890700	0.113200	0.265900
H351	H35	0.879100	0.070300	0.280800
C581	C58	0.803700	0.031400	0.193000
C591	C59	0.735700	0.991400	0.218500
H361	H36	0.724400	0.012500	0.250200
C601	C60	0.684500	0.920300	0.196800
H371	H37	0.640000	0.894300	0.214400
C611	C61	0.699600	0.888700	0.150200
C621	C62	0.767800	0.928800	0.125100
C631	C63	0.819400	0.000600	0.146500
C641	C64	0.646800	0.810600	0.125600
C651	C65	0.946500	0.309100	0.195800
C661	C66	0.027900	0.337500	0.178400
C671	C67	0.045800	0.406700	0.160300
C681	C68	0.978900	0.443700	0.156900
H381	H38	0.998900	0.494300	0.176000
C691	C69	0.891700	0.411800	0.172500
C701	C70	0.879800	0.346300	0.192000
C711	C71	0.785700	0.354400	0.260100
H391	H39	0.830100	0.394600	0.275900
H401	H40	0.733600	0.338700	0.275900
C721	C72	0.100200	0.318400	0.302200
H411	H41	0.126800	0.365300	0.323400
H421	H42	0.130200	0.315300	0.271700
H431	H43	0.104500	0.276900	0.318200
C731	C73	0.089500	0.231000	0.151900
H441	H44	0.145100	0.229000	0.137700
H451	H45	0.045400	0.223300	0.126000
H461	H46	0.073000	0.192100	0.171800
C741	C74	0.749300	0.153800	0.140700
H471	H47	0.733100	0.135200	0.106400
H481	H48	0.730900	0.199800	0.150900
H491	H49	0.721100	0.116700	0.160100
C751	C75	0.819900	0.445600	0.161400
C761	C76	0.743000	0.402500	0.136800
H501	H50	0.732300	0.350100	0.133100
C771	C77	0.681300	0.433000	0.117500
H511	H51	0.632000	0.402400	0.099200
C781	C78	0.695100	0.511100	0.126300
C791	C79	0.767200	0.554700	0.153800
H521	H52	0.774400	0.606800	0.161200
C801	C80	0.828400	0.522900	0.170400
H531	H53	0.877800	0.554000	0.188500
C811	C81	0.629800	0.546100	0.101800
C821	C82	0.131700	0.442900	0.144700
C831	C83	0.171900	0.404400	0.106200
H541	H54	0.146600	0.354200	0.092700
C841	C84	0.251500	0.443900	0.088200
H551	H55	0.277200	0.419200	0.062100
C851	C85	0.293700	0.520600	0.109000
C861	C86	0.253200	0.555300	0.146900
H561	H56	0.279600	0.604700	0.161800
C871	C87	0.172700	0.518100	0.163700
H571	H57	0.145600	0.544400	0.188400
C881	C88	0.375600	0.557800	0.088800
O11	O1	0.560900	0.629900	0.003390
O21	O2	0.498100	0.725600	0.021200
O31	O3	0.980200	0.121100	0.647200
O41	O4	0.960700	0.074400	0.568400
O51	O5	0.160600	0.075400	0.598800
O61	O6	0.108400	0.973600	0.540000
O71	O7	0.230100	0.253900	0.587300
O81	O8	0.135000	0.270200	0.644600
O91	O9	0.411200	0.639700	0.631400
O101	O10	0.537300	0.811000	0.778000
O111	O11	0.336700	0.782100	0.676900
O121	O12	0.645200	0.797800	0.679800
O131	O13	0.088900	0.119600	0.497490
O141	O14	0.045500	0.224000	0.525600
O151	O15	0.395900	0.527100	0.048000
O161	O16	0.416600	0.619900	0.112400
O171	O17	0.577800	0.782700	0.146100
O181	O18	0.673300	0.779800	0.086800
O191	O19	0.584900	0.505800	0.066100
O201	O20	0.631800	0.613600	0.119800
O211	O21	0.797700	0.316700	0.211400
O221	O22	0.097300	0.305000	0.182800
O231	O23	0.843600	0.168500	0.148000
O241	O24	0.009400	0.315000	0.292100
Cd11	Cd1	0.547710	0.674920	0.087980
Cd21	Cd2	0.092700	0.163770	0.586090
H581	H58	0.742100	0.934500	0.094200
H591	H59	0.813400	0.035800	0.124900
H601	H60	0.808000	0.896500	0.116600
H611	H61	0.880500	0.997700	0.146300
H621	H62	0.973100	0.449400	0.122700
C891	C89	0.472900	0.320300	0.009100
C901	C90	0.476000	0.315800	0.062600
C911	C91	0.447900	0.365800	0.095500
H631	H63	0.421900	0.401000	0.084800
C921	C92	0.457200	0.365400	0.146300
H641	H64	0.436800	0.400300	0.168600
C931	C93	0.496000	0.314500	0.164100
C941	C94	0.522600	0.259800	0.128500
H651	H65	0.546300	0.222900	0.138700
C951	C95	0.513300	0.261800	0.079300
H661	H66	0.532000	0.226500	0.056300
C961	C96	0.515800	0.321600	0.217400
C971	C97	0.500100	0.263000	0.245200
C981	C98	0.523600	0.273800	0.295200
C991	C99	0.565100	0.350200	0.319300
C1001	C100	0.583200	0.409300	0.292500
C1011	C101	0.557400	0.394500	0.243000
H671	H67	0.568100	0.434700	0.225600
C1021	C102	0.634600	0.485900	0.314500
C1031	C103	0.620000	0.523000	0.361400
H681	H68	0.575900	0.498900	0.379900
C1041	C104	0.668800	0.593600	0.380400
H691	H69	0.656800	0.617000	0.411500
C1051	C105	0.737700	0.632100	0.353500
C1061	C106	0.751800	0.595600	0.306500
H701	H70	0.796700	0.619400	0.288100
C1071	C107	0.700400	0.524800	0.286700
H711	H71	0.709300	0.502500	0.254800
C1081	C108	0.792400	0.707700	0.376400
C1091	C109	0.507500	0.209700	0.322300
C1101	C110	0.422500	0.174700	0.334400
C1111	C111	0.408200	0.111300	0.357800
C1121	C112	0.479500	0.086400	0.371900
H721	H72	0.469700	0.045800	0.388900
C1131	C113	0.567500	0.121000	0.361200
C1141	C114	0.577500	0.182200	0.335600
C1151	C115	0.518000	0.354100	0.401700
H731	H73	0.495400	0.398500	0.404600
H741	H74	0.472000	0.310200	0.389100
H751	H75	0.539100	0.349500	0.433600
C1161	C116	0.372100	0.174800	0.204500
H761	H76	0.344900	0.121700	0.201000
H771	H77	0.340900	0.202500	0.227800
H781	H78	0.370100	0.190800	0.173100
C1171	C117	0.306300	0.231500	0.359900
H791	H79	0.247500	0.228100	0.348000
H801	H80	0.304000	0.202600	0.386100
H811	H81	0.334800	0.283500	0.372100
C1181	C118	0.689300	0.178500	0.280200
H821	H82	0.682000	0.126400	0.283400
H831	H83	0.653800	0.181600	0.252400
H841	H84	0.750100	0.200300	0.275200
C1191	C119	0.640400	0.089800	0.375200
C1201	C120	0.714400	0.134800	0.402900
H851	H85	0.720100	0.186800	0.411000
C1211	C121	0.780900	0.102900	0.418800
H861	H86	0.830200	0.133300	0.437300
C1221	C122	0.771100	0.024700	0.406100
C1231	C123	0.699400	0.981500	0.377100
H871	H87	0.694600	0.929900	0.367500
C1241	C124	0.634100	0.012800	0.361900
H881	H88	0.585800	0.982100	0.342700
C1251	C125	0.841300	0.991100	0.424300
C1261	C126	0.255600	0.038300	0.326900
H891	H89	0.268100	0.052100	0.296100
C1271	C127	0.318600	0.066800	0.365400
C1281	C128	0.294300	0.050400	0.411900
H901	H90	0.334200	0.070300	0.438700
C1291	C129	0.213300	0.005800	0.419500
H911	H91	0.198400	0.997200	0.451200
C1301	C130	0.153600	0.973500	0.380000
C1311	C131	0.177400	0.991400	0.332400
H921	H92	0.138600	0.970700	0.305200
C1321	C132	0.064700	0.924500	0.388300
C1331	C133	0.943600	0.825100	0.510600
C1341	C134	0.966700	0.819500	0.560300
C1351	C135	0.005500	0.761600	0.570700
H931	H93	0.012100	0.723600	0.545200
C1361	C136	0.033500	0.760800	0.617900
H941	H94	0.059800	0.722800	0.623800
C1371	C137	0.023300	0.815600	0.656800
C1381	C138	0.984200	0.872900	0.647200
H951	H95	0.977000	0.910500	0.672800
C1391	C139	0.957000	0.873200	0.600100
H961	H96	0.930600	0.911200	0.594400
C1401	C140	0.058300	0.818700	0.707100
C1411	C141	0.039100	0.756200	0.732000
C1421	C142	0.071100	0.760300	0.779500
C1431	C143	0.128400	0.829400	0.803700
C1441	C144	0.143200	0.893600	0.782100
C1451	C145	0.109300	0.886800	0.734100
H971	H97	0.120900	0.929700	0.719200
C1461	C146	0.196300	0.968600	0.807000
C1471	C147	0.264300	0.008600	0.781500
H981	H98	0.275600	0.987500	0.749800
C1481	C148	0.315500	0.079700	0.803200
H991	H99	0.360000	0.105700	0.785600
C1491	C149	0.300400	0.111300	0.849800
C1501	C150	0.232200	0.071200	0.874900
C1511	C151	0.180600	0.999400	0.853500
C1521	C152	0.353200	0.189400	0.874400
C1531	C153	0.053500	0.690900	0.804200
C1541	C154	0.972100	0.662500	0.821600
C1551	C155	0.954200	0.593300	0.839700
C1561	C156	0.021100	0.556300	0.843100
H1001	H100	0.001100	0.505700	0.824000
C1571	C157	0.108300	0.588200	0.827500
C1581	C158	0.120200	0.653700	0.808000
C1591	C159	0.214300	0.645600	0.739900
H1011	H101	0.169900	0.605400	0.724100
H1021	H102	0.266400	0.661300	0.724100
C1601	C160	0.899800	0.681600	0.697800
H1031	H103	0.873200	0.634700	0.676600
H1041	H104	0.869800	0.684700	0.728300
H1051	H105	0.895500	0.723100	0.681800
C1611	C161	0.910500	0.769000	0.848100
H1061	H106	0.854900	0.771000	0.862300
H1071	H107	0.954600	0.776700	0.874000
H1081	H108	0.927000	0.807900	0.828200
C1621	C162	0.250700	0.846200	0.859300
H1091	H109	0.266900	0.864800	0.893600
H1101	H110	0.269100	0.800200	0.849100
H1111	H111	0.278900	0.883300	0.839900
C1631	C163	0.180100	0.554400	0.838600
C1641	C164	0.257000	0.597500	0.863200
H1121	H112	0.267700	0.649900	0.866900
C1651	C165	0.318700	0.567000	0.882500
H1131	H113	0.368000	0.597600	0.900800
C1661	C166	0.304900	0.488900	0.873700
C1671	C167	0.232800	0.445300	0.846200
H1141	H114	0.225600	0.393200	0.838800
C1681	C168	0.171600	0.477100	0.829600
H1151	H115	0.122200	0.446000	0.811500
C1691	C169	0.370200	0.453900	0.898200
C1701	C170	0.868300	0.557100	0.855300
C1711	C171	0.828100	0.595600	0.893800
H1161	H116	0.853400	0.645800	0.907300
C1721	C172	0.748500	0.556100	0.911800
H1171	H117	0.722800	0.580800	0.937900
C1731	C173	0.706300	0.479400	0.891000
C1741	C174	0.746800	0.444700	0.853100
H1181	H118	0.720400	0.395300	0.838200
C1751	C175	0.827300	0.481900	0.836300
H1191	H119	0.854400	0.455600	0.811600
C1761	C176	0.624400	0.442200	0.911200
O251	O25	0.439100	0.370100	0.996610
O261	O26	0.501900	0.274400	0.978800
O271	O27	0.019800	0.878900	0.352800
O281	O28	0.039300	0.925600	0.431600
O291	O29	0.839400	0.924600	0.401200
O301	O30	0.891600	0.026400	0.460000
O311	O31	0.769900	0.746100	0.412700
O321	O32	0.865000	0.729800	0.355400
O331	O33	0.588800	0.360300	0.368600
O341	O34	0.462700	0.189000	0.222000
O351	O35	0.663300	0.217900	0.323100
O361	O36	0.354800	0.202200	0.320200
O371	O37	0.911100	0.880400	0.502510
O381	O38	0.954500	0.776000	0.474400
O391	O39	0.604100	0.472900	0.952000
O401	O40	0.583400	0.380100	0.887600
O411	O41	0.422200	0.217300	0.853900
O421	O42	0.326700	0.220200	0.913200
O431	O43	0.415100	0.494200	0.933900
O441	O44	0.368200	0.386400	0.880200
O451	O45	0.202300	0.683300	0.788600
O461	O46	0.902700	0.695000	0.817200
O471	O47	0.156400	0.831500	0.852000
O481	O48	0.990600	0.685000	0.707900
Cd31	Cd3	0.452290	0.325080	0.912020
Cd41	Cd4	0.907300	0.836230	0.413910
H1201	H120	0.257900	0.065500	0.905800
H1211	H121	0.186600	0.964200	0.875100
H1221	H122	0.192000	0.103500	0.883400
H1231	H123	0.119500	0.002300	0.853700
H1241	H124	0.026900	0.550600	0.877300
Cd51	Cd5	0.500000	0.500000	0.000000
Cd61	Cd6	0.000000	0.000000	0.500000
