data_WUYWIY_clean_PM
_symmetry_space_group_name_H-M	'P1'
_cell_length_a	15.456200
_cell_length_b	16.278000
_cell_length_c	18.346000
_cell_angle_alpha	108.559000
_cell_angle_beta	103.799000
_cell_angle_gamma	108.453000
_symmetry_Int_Tables_number 1

loop_
_symmetry_equiv_pos_as_xyz
'x,y,z'

loop_
_atom_site_label
_atom_site_type_symbol
_atom_site_fract_x
_atom_site_fract_y
_atom_site_fract_z
C11	C1	0.554000	0.024500	0.689800
C21	C2	0.594900	0.127400	0.744800
C31	C3	0.643700	0.193000	0.722000
H11	H1	0.656100	0.173500	0.673600
C41	C4	0.676200	0.291600	0.771600
H21	H2	0.709300	0.336800	0.755500
C51	C5	0.658900	0.321200	0.844200
C61	C6	0.611500	0.254800	0.867800
H31	H3	0.600400	0.274700	0.916700
C71	C7	0.579600	0.158100	0.820200
H41	H4	0.548200	0.113400	0.837600
C81	C8	0.562200	0.753500	0.681100
C91	C9	0.592800	0.707300	0.731500
C101	C10	0.528400	0.613600	0.716300
H51	H5	0.466400	0.581900	0.673900
C111	C11	0.557300	0.570200	0.763500
H61	H6	0.515900	0.507900	0.751400
C121	C12	0.648900	0.618300	0.830600
C131	C13	0.712900	0.709600	0.843100
H71	H7	0.775200	0.741200	0.885000
C141	C14	0.684600	0.752600	0.794400
H81	H8	0.728000	0.813000	0.804000
C151	C15	0.308500	0.803500	0.476300
C161	C16	0.208600	0.772100	0.412600
C171	C17	0.131400	0.699100	0.408200
H91	H9	0.140200	0.668900	0.442800
C181	C18	0.033900	0.669300	0.347800
H101	H10	0.980500	0.617100	0.341500
C191	C19	0.020700	0.717800	0.300200
C201	C20	0.093300	0.801100	0.321400
H111	H11	0.080900	0.843600	0.301200
C211	C21	0.187200	0.825900	0.373000
H121	H12	0.238100	0.881500	0.381400
C221	C22	0.556900	0.822900	0.440000
C231	C23	0.596600	0.772000	0.380200
C241	C24	0.591100	0.784000	0.307600
H131	H13	0.556200	0.817000	0.292400
C251	C25	0.636300	0.747900	0.258400
H141	H14	0.630600	0.755900	0.209700
C261	C26	0.691100	0.699300	0.279900
C271	C27	0.692600	0.684100	0.352300
H151	H15	0.726900	0.650900	0.368000
C281	C28	0.644100	0.717800	0.399000
H161	H16	0.642900	0.704100	0.444400
C291	C29	0.659100	0.474000	0.845100
H171	H17	0.628200	0.441200	0.787700
C301	C30	0.676300	0.570800	0.882900
C311	C31	0.717800	0.615800	0.970400
C321	C32	0.747000	0.570700	0.016600
C331	C33	0.733400	0.476600	0.975900
C341	C34	0.685800	0.425900	0.889400
C351	C35	0.786600	0.618600	0.108200
C361	C36	0.723600	0.631600	0.149700
C371	C37	0.753800	0.674300	0.236100
C381	C38	0.852000	0.700400	0.281100
H181	H18	0.873900	0.727600	0.338800
C391	C39	0.918800	0.688600	0.245500
C401	C40	0.885200	0.648900	0.157600
C411	C41	0.843300	0.410400	0.011100
H191	H19	0.860900	0.380300	0.045900
H201	H20	0.822900	0.367500	0.954000
H211	H21	0.899100	0.468100	0.025100
C421	C42	0.654300	0.732200	0.006800
H221	H22	0.676100	0.799600	0.038200
H231	H23	0.617500	0.714100	0.949700
H241	H24	0.613200	0.697200	0.028500
C431	C43	0.560900	0.512300	0.098100
H251	H25	0.494300	0.493900	0.063700
H261	H26	0.581000	0.462800	0.075700
H271	H27	0.564700	0.521500	0.153300
C441	C44	0.991800	0.707400	0.094400
H281	H28	0.035500	0.692600	0.068600
H291	H29	0.940300	0.710600	0.055700
H301	H30	0.027900	0.768100	0.142200
Cd11	Cd1	0.485690	0.833970	0.588420
O11	O1	0.575500	0.998000	0.625000
O21	O2	0.499300	0.961500	0.706000
O31	O3	0.470100	0.718300	0.634100
O41	O4	0.621300	0.829700	0.685200
O51	O5	0.369700	0.883200	0.498500
O61	O6	0.323500	0.749400	0.505000
O71	O7	0.537000	0.785400	0.488000
O81	O8	0.549000	0.894900	0.434900
O91	O9	0.764300	0.432900	0.023400
O101	O10	0.737100	0.711000	0.012800
O111	O11	0.625100	0.600700	0.100400
O121	O12	0.949600	0.634300	0.119500
C451	C45	0.446000	0.975500	0.310200
C461	C46	0.405100	0.872600	0.255200
C471	C47	0.356300	0.807000	0.278000
H311	H31	0.343900	0.826500	0.326400
C481	C48	0.323800	0.708400	0.228400
H321	H32	0.290700	0.663200	0.244500
C491	C49	0.341100	0.678800	0.155800
C501	C50	0.388500	0.745200	0.132200
H331	H33	0.399600	0.725300	0.083300
C511	C51	0.420400	0.841900	0.179800
H341	H34	0.451800	0.886600	0.162400
C521	C52	0.437800	0.246500	0.318900
C531	C53	0.407200	0.292700	0.268500
C541	C54	0.471600	0.386400	0.283700
H351	H35	0.533600	0.418100	0.326100
C551	C55	0.442700	0.429800	0.236500
H361	H36	0.484100	0.492100	0.248600
C561	C56	0.351100	0.381700	0.169400
C571	C57	0.287100	0.290400	0.156900
H371	H37	0.224800	0.258800	0.115000
C581	C58	0.315400	0.247400	0.205600
H381	H38	0.272000	0.187000	0.196000
C591	C59	0.691500	0.196500	0.523700
C601	C60	0.791400	0.227900	0.587400
C611	C61	0.868600	0.300900	0.591800
H391	H39	0.859800	0.331100	0.557200
C621	C62	0.966100	0.330700	0.652200
H401	H40	0.019500	0.382900	0.658500
C631	C63	0.979300	0.282200	0.699800
C641	C64	0.906700	0.198900	0.678600
H411	H41	0.919100	0.156400	0.698800
C651	C65	0.812800	0.174100	0.627000
H421	H42	0.761900	0.118500	0.618600
C661	C66	0.443100	0.177100	0.560000
C671	C67	0.403400	0.228000	0.619800
C681	C68	0.408900	0.216000	0.692400
H431	H43	0.443800	0.183000	0.707600
C691	C69	0.363700	0.252100	0.741600
H441	H44	0.369400	0.244100	0.790300
C701	C70	0.308900	0.300700	0.720100
C711	C71	0.307400	0.315900	0.647700
H451	H45	0.273100	0.349100	0.632000
C721	C72	0.355900	0.282200	0.601000
H461	H46	0.357100	0.295900	0.555600
C731	C73	0.340900	0.526000	0.154900
H471	H47	0.371800	0.558800	0.212300
C741	C74	0.323700	0.429200	0.117100
C751	C75	0.282200	0.384200	0.029600
C761	C76	0.253000	0.429300	0.983400
C771	C77	0.266600	0.523400	0.024100
C781	C78	0.314200	0.574100	0.110600
C791	C79	0.213400	0.381400	0.891800
C801	C80	0.276400	0.368400	0.850300
C811	C81	0.246200	0.325700	0.763900
C821	C82	0.148000	0.299600	0.718900
H481	H48	0.126100	0.272400	0.661200
C831	C83	0.081200	0.311400	0.754500
C841	C84	0.114800	0.351100	0.842400
C851	C85	0.156700	0.589600	0.988900
H491	H49	0.139100	0.619700	0.954100
H501	H50	0.177100	0.632500	0.046000
H511	H51	0.100900	0.531900	0.974900
C861	C86	0.345700	0.267800	0.993200
H521	H52	0.323900	0.200400	0.961800
H531	H53	0.382500	0.285900	0.050300
H541	H54	0.386800	0.302800	0.971500
C871	C87	0.439100	0.487700	0.901900
H551	H55	0.505700	0.506100	0.936300
H561	H56	0.419000	0.537200	0.924300
H571	H57	0.435300	0.478500	0.846700
C881	C88	0.008200	0.292600	0.905600
H581	H58	0.964500	0.307400	0.931400
H591	H59	0.059700	0.289400	0.944300
H601	H60	0.972100	0.231900	0.857800
Cd21	Cd2	0.514310	0.166030	0.411580
O131	O13	0.424500	0.002000	0.375000
O141	O14	0.500700	0.038500	0.294000
O151	O15	0.529900	0.281700	0.365900
O161	O16	0.378700	0.170300	0.314800
O171	O17	0.630300	0.116800	0.501500
O181	O18	0.676500	0.250600	0.495000
O191	O19	0.463000	0.214600	0.512000
O201	O20	0.451000	0.105100	0.565100
O211	O21	0.235700	0.567100	0.976600
O221	O22	0.262900	0.289000	0.987200
O231	O23	0.374900	0.399300	0.899600
O241	O24	0.050400	0.365700	0.880500
Cd31	Cd3	0.500000	0.000000	0.500000
