data_WUYWUK_clean_PM
_symmetry_space_group_name_H-M	'P1'
_cell_length_a	15.468000
_cell_length_b	15.785000
_cell_length_c	18.038000
_cell_angle_alpha	107.270000
_cell_angle_beta	103.949000
_cell_angle_gamma	107.163000
_symmetry_Int_Tables_number 1

loop_
_symmetry_equiv_pos_as_xyz
'x,y,z'

loop_
_atom_site_label
_atom_site_type_symbol
_atom_site_fract_x
_atom_site_fract_y
_atom_site_fract_z
Co11	Co1	0.025360	0.177880	0.914840
O11	O1	0.958300	0.104600	0.062000
O21	O2	0.976800	0.228000	0.012800
O31	O3	0.948900	0.020100	0.880400
O41	O4	0.024900	0.064800	0.797400
O51	O5	0.890400	0.178200	0.821400
O61	O6	0.035900	0.292100	0.870500
O71	O7	0.172400	0.227300	0.987900
O81	O8	0.142000	0.103700	0.028200
C11	C1	0.971600	0.999600	0.812800
C21	C2	0.924300	0.897300	0.756300
C31	C3	0.863700	0.826600	0.774100
H11	H1	0.848600	0.845000	0.821700
C41	C4	0.826800	0.731600	0.722900
H21	H2	0.785000	0.686400	0.735100
C51	C5	0.850100	0.700300	0.652800
C61	C6	0.906500	0.767600	0.631700
H31	H3	0.918500	0.747100	0.582700
C71	C7	0.946600	0.867500	0.682600
H41	H4	0.986200	0.912400	0.668600
C81	C8	0.821000	0.594600	0.605900
C91	C9	0.841100	0.540700	0.650400
H51	H5	0.870100	0.571400	0.708100
O91	O9	0.763600	0.596800	0.470300
C101	C10	0.819900	0.442100	0.612900
O101	O10	0.753600	0.297200	0.485900
C111	C11	0.779900	0.396700	0.529800
O111	O11	0.561500	0.392200	0.378300
C121	C12	0.758900	0.449100	0.481400
O121	O12	0.879500	0.411600	0.396300
C131	C13	0.782600	0.546400	0.520400
C141	C14	0.684700	0.633700	0.474800
H61	H6	0.684800	0.674600	0.444600
H71	H7	0.696200	0.670000	0.531900
H81	H8	0.623000	0.580100	0.450700
C151	C15	0.837900	0.269200	0.484200
H91	H9	0.817200	0.200800	0.469000
H101	H10	0.888200	0.302700	0.538200
H111	H11	0.862300	0.286100	0.444100
C161	C16	0.947700	0.255300	0.822900
C171	C17	0.912400	0.303300	0.772500
C181	C18	0.821400	0.262200	0.713500
H121	H12	0.778600	0.203900	0.709300
C191	C19	0.790300	0.301400	0.661000
H131	H13	0.729600	0.267400	0.618800
C201	C20	0.848300	0.392100	0.669500
C211	C21	0.941200	0.439500	0.733600
H141	H14	0.979900	0.501800	0.742300
C221	C22	0.975400	0.397600	0.782100
H151	H15	0.038300	0.428500	0.821100
C231	C23	0.954400	0.180000	0.063000
C241	C24	0.912500	0.237200	0.117300
C251	C25	0.914200	0.220800	0.189700
H161	H16	0.943700	0.181200	0.203500
C261	C26	0.871200	0.264200	0.241400
H171	H17	0.877800	0.258500	0.292100
C271	C27	0.816600	0.317800	0.216500
C281	C28	0.818400	0.336900	0.145300
H181	H18	0.789200	0.376600	0.131300
C291	C29	0.865000	0.295300	0.094900
H191	H19	0.864300	0.306000	0.046800
C301	C30	0.751400	0.342700	0.259800
C311	C31	0.785300	0.386600	0.349100
C321	C32	0.940600	0.507200	0.408600
H201	H20	0.007400	0.517000	0.430400
H211	H21	0.927800	0.554300	0.447200
H221	H22	0.927200	0.514100	0.356400
C331	C33	0.719800	0.401800	0.387700
C341	C34	0.623800	0.372700	0.340100
C351	C35	0.591100	0.331100	0.253300
C361	C36	0.657800	0.320200	0.216000
H231	H23	0.637200	0.296200	0.158300
C371	C37	0.526600	0.331300	0.421700
H241	H24	0.481100	0.350000	0.443300
H251	H25	0.580600	0.339300	0.466800
H261	H26	0.495600	0.264800	0.383400
C381	C38	0.489500	0.296600	0.199700
C391	C39	0.461800	0.335300	0.138100
H271	H27	0.507800	0.383500	0.132000
C401	C40	0.365200	0.298200	0.089200
H281	H28	0.346100	0.328400	0.055000
C411	C41	0.297700	0.222400	0.087600
C421	C42	0.325900	0.186200	0.141600
H291	H29	0.280500	0.132400	0.141800
C431	C43	0.421900	0.225200	0.199200
H301	H30	0.436500	0.198600	0.237800
C441	C44	0.196100	0.184400	0.030600
Co21	Co2	0.974640	0.822120	0.085160
O131	O13	0.041700	0.895400	0.938000
O141	O14	0.023200	0.772000	0.987200
O151	O15	0.051100	0.979900	0.119600
O161	O16	0.975100	0.935200	0.202600
O171	O17	0.109600	0.821800	0.178600
O181	O18	0.964100	0.707900	0.129500
O191	O19	0.827600	0.772700	0.012100
O201	O20	0.858000	0.896300	0.971800
C451	C45	0.028400	0.000400	0.187200
C461	C46	0.075700	0.102700	0.243700
C471	C47	0.136300	0.173400	0.225900
H311	H31	0.151400	0.155000	0.178300
C481	C48	0.173200	0.268400	0.277100
H321	H32	0.215000	0.313600	0.264900
C491	C49	0.149900	0.299700	0.347200
C501	C50	0.093500	0.232400	0.368300
H331	H33	0.081500	0.252900	0.417300
C511	C51	0.053400	0.132500	0.317400
H341	H34	0.013800	0.087600	0.331400
C521	C52	0.179000	0.405400	0.394100
C531	C53	0.158900	0.459300	0.349600
H351	H35	0.129900	0.428600	0.291900
O211	O21	0.236400	0.403200	0.529700
C541	C54	0.180100	0.557900	0.387100
O221	O22	0.246400	0.702800	0.514100
C551	C55	0.220100	0.603300	0.470200
O231	O23	0.438500	0.607800	0.621700
C561	C56	0.241100	0.550900	0.518600
O241	O24	0.120500	0.588400	0.603700
C571	C57	0.217400	0.453600	0.479600
C581	C58	0.315300	0.366300	0.525200
H361	H36	0.315200	0.325400	0.555400
H371	H37	0.303800	0.330000	0.468100
H381	H38	0.377000	0.419900	0.549300
C591	C59	0.162100	0.730800	0.515800
H391	H39	0.182800	0.799200	0.531000
H401	H40	0.111800	0.697300	0.461800
H411	H41	0.137700	0.713900	0.555900
C601	C60	0.052300	0.744700	0.177100
C611	C61	0.087600	0.696700	0.227500
C621	C62	0.178600	0.737800	0.286500
H421	H42	0.221400	0.796100	0.290700
C631	C63	0.209700	0.698600	0.339000
H431	H43	0.270400	0.732600	0.381200
C641	C64	0.151700	0.607900	0.330500
C651	C65	0.058800	0.560500	0.266400
H441	H44	0.020100	0.498200	0.257700
C661	C66	0.024600	0.602400	0.217900
H451	H45	0.961700	0.571500	0.178900
C671	C67	0.045600	0.820000	0.937000
C681	C68	0.087500	0.762800	0.882700
C691	C69	0.085800	0.779200	0.810300
H461	H46	0.056300	0.818800	0.796500
C701	C70	0.128800	0.735800	0.758600
H471	H47	0.122200	0.741500	0.707900
C711	C71	0.183400	0.682200	0.783500
C721	C72	0.181600	0.663100	0.854700
H481	H48	0.210800	0.623400	0.868700
C731	C73	0.135000	0.704700	0.905100
H491	H49	0.135700	0.694000	0.953200
C741	C74	0.248600	0.657300	0.740200
C751	C75	0.214700	0.613400	0.650900
C761	C76	0.059400	0.492800	0.591400
H501	H50	0.992600	0.483000	0.569600
H511	H51	0.072200	0.445700	0.552800
H521	H52	0.072800	0.485900	0.643600
C771	C77	0.280200	0.598200	0.612300
C781	C78	0.376200	0.627300	0.659900
C791	C79	0.408900	0.668900	0.746700
C801	C80	0.342200	0.679800	0.784000
H531	H53	0.362800	0.703800	0.841700
C811	C81	0.473400	0.668700	0.578300
H541	H54	0.518900	0.650000	0.556700
H551	H55	0.419400	0.660700	0.533200
H561	H56	0.504400	0.735200	0.616600
C821	C82	0.510500	0.703400	0.800300
C831	C83	0.538200	0.664700	0.861900
H571	H57	0.492200	0.616500	0.868000
C841	C84	0.634800	0.701800	0.910800
H581	H58	0.653900	0.671600	0.945000
C851	C85	0.702300	0.777600	0.912400
C861	C86	0.674100	0.813800	0.858400
H591	H59	0.719500	0.867600	0.858200
C871	C87	0.578100	0.774800	0.800800
H601	H60	0.563500	0.801400	0.762200
C881	C88	0.803900	0.815600	0.969400
Co31	Co3	0.000000	0.000000	0.000000
