data_WUYXOF_clean_PM
_symmetry_space_group_name_H-M	'P1'
_cell_length_a	15.957000
_cell_length_b	16.460000
_cell_length_c	17.300000
_cell_angle_alpha	106.070000
_cell_angle_beta	100.850000
_cell_angle_gamma	113.408000
_symmetry_Int_Tables_number 1

loop_
_symmetry_equiv_pos_as_xyz
'x,y,z'

loop_
_atom_site_label
_atom_site_type_symbol
_atom_site_fract_x
_atom_site_fract_y
_atom_site_fract_z
Mn11	Mn1	0.748960	0.596770	0.573390
O11	O1	0.617100	0.556500	0.624200
O21	O2	0.742200	0.709600	0.694300
O31	O3	0.618100	0.589900	0.468300
O41	O4	0.765500	0.703800	0.504900
O51	O5	0.539700	0.391900	0.456300
O61	O6	0.701900	0.453100	0.484700
O71	O7	0.837800	0.573200	0.686800
O81	O8	0.910300	0.652600	0.612300
O91	O9	0.272600	0.797300	0.035600
O101	O10	0.576100	0.808000	0.041100
O111	O11	0.474900	0.992000	0.120400
O121	O12	0.454300	0.701100	0.143500
C11	C1	0.448100	0.730000	0.900500
C21	C2	0.352900	0.709300	0.857600
H11	H1	0.328200	0.679300	0.798300
C31	C3	0.293500	0.732200	0.901100
C41	C4	0.328700	0.773800	0.986800
C51	C5	0.423400	0.800100	0.036800
C61	C6	0.481100	0.777100	0.991500
C71	C7	0.601000	0.728900	0.040500
H21	H2	0.646800	0.730900	0.011200
H31	H3	0.543200	0.667800	0.011800
H41	H4	0.628900	0.737300	0.098300
C81	C8	0.247900	0.864000	0.020700
H51	H5	0.305600	0.921600	0.032100
H61	H6	0.213200	0.878500	0.057500
H71	H7	0.207500	0.838500	0.962200
C91	C9	0.564700	0.051900	0.105600
H81	H8	0.549100	0.081800	0.068800
H91	H9	0.589900	0.011700	0.079200
H101	H10	0.612500	0.100500	0.159300
C101	C10	0.349000	0.635600	0.111800
H111	H11	0.337100	0.578700	0.122800
H121	H12	0.323500	0.618400	0.051500
H131	H13	0.317800	0.667200	0.140600
C111	C11	0.462800	0.849200	0.130700
C121	C12	0.481500	0.803000	0.185900
C131	C13	0.532700	0.850400	0.269500
C141	C14	0.561300	0.946300	0.306100
H141	H14	0.595700	0.979100	0.364400
C151	C15	0.541400	0.995500	0.260400
C161	C16	0.491200	0.945900	0.170700
C171	C17	0.566700	0.804500	0.325000
C181	C18	0.504500	0.716800	0.325800
H151	H15	0.439200	0.686800	0.293300
C191	C19	0.637000	0.713700	0.417000
C201	C20	0.698900	0.797500	0.409900
H161	H16	0.765400	0.822400	0.434500
C211	C21	0.667400	0.844200	0.369500
H171	H17	0.711400	0.902600	0.370700
C221	C22	0.672800	0.669200	0.463400
C231	C23	0.560700	0.094500	0.300700
C241	C24	0.653600	0.164700	0.363500
H181	H18	0.702900	0.148600	0.375100
C251	C25	0.670000	0.259900	0.408300
H191	H19	0.731900	0.307200	0.445100
C261	C26	0.596600	0.281600	0.397800
C271	C27	0.507200	0.210300	0.336500
H201	H20	0.456300	0.224700	0.328100
C281	C28	0.491000	0.123700	0.289700
H211	H21	0.430500	0.081000	0.248000
C291	C29	0.611400	0.380300	0.446800
C301	C30	0.507200	0.709800	0.851900
C311	C31	0.601500	0.779000	0.865600
H221	H22	0.630800	0.838500	0.910800
C321	C32	0.651500	0.757800	0.810700
H231	H23	0.712600	0.804200	0.817400
C331	C33	0.606400	0.662600	0.743600
C341	C34	0.517600	0.598900	0.734200
H241	H24	0.490900	0.537500	0.692200
C351	C35	0.460700	0.617500	0.783500
H251	H25	0.397000	0.572400	0.771900
C361	C36	0.659100	0.645400	0.686000
C371	C37	0.916600	0.622000	0.676200
C381	C38	0.009500	0.650900	0.732700
C391	C39	0.093300	0.700400	0.718900
H261	H26	0.089000	0.719500	0.673200
C401	C40	0.185300	0.723700	0.770000
H271	H27	0.240000	0.755500	0.756900
C411	C41	0.194700	0.698500	0.841900
C421	C42	0.111300	0.660300	0.866000
H281	H28	0.117100	0.653900	0.918300
C431	C43	0.018400	0.631900	0.808100
H291	H29	0.962800	0.600400	0.820200
C441	C44	0.536800	0.671500	0.374300
H301	H30	0.493200	0.615900	0.377600
Cd11	Cd1	0.251040	0.403230	0.426610
O131	O13	0.382900	0.443500	0.375800
O141	O14	0.257800	0.290400	0.305700
O151	O15	0.381900	0.410100	0.531700
O161	O16	0.234500	0.296200	0.495100
O171	O17	0.460300	0.608100	0.543700
O181	O18	0.298100	0.546900	0.515300
O191	O19	0.162200	0.426800	0.313200
O201	O20	0.089700	0.347400	0.387700
O211	O21	0.727400	0.202700	0.964400
O221	O22	0.423900	0.192000	0.958900
O231	O23	0.525100	0.008000	0.879600
O241	O24	0.545700	0.298900	0.856500
C451	C45	0.551900	0.270000	0.099500
C461	C46	0.647100	0.290700	0.142400
H311	H31	0.671800	0.320700	0.201700
C471	C47	0.706500	0.267800	0.098900
C481	C48	0.671300	0.226200	0.013200
C491	C49	0.576600	0.199900	0.963200
C501	C50	0.518900	0.222900	0.008500
C511	C51	0.399000	0.271100	0.959500
H321	H32	0.353200	0.269100	0.988800
H331	H33	0.456800	0.332200	0.988200
H341	H34	0.371100	0.262700	0.901700
C521	C52	0.752100	0.136000	0.979300
H351	H35	0.694400	0.078400	0.967900
H361	H36	0.786800	0.121500	0.942500
H371	H37	0.792500	0.161500	0.037800
C531	C53	0.435300	0.948100	0.894400
H381	H38	0.450900	0.918200	0.931200
H391	H39	0.410100	0.988300	0.920800
H401	H40	0.387500	0.899500	0.840700
C541	C54	0.651000	0.364400	0.888200
H411	H41	0.662900	0.421300	0.877200
H421	H42	0.676500	0.381600	0.948500
H431	H43	0.682200	0.332800	0.859400
C551	C55	0.537200	0.150800	0.869300
C561	C56	0.518500	0.197000	0.814100
C571	C57	0.467300	0.149600	0.730500
C581	C58	0.438700	0.053700	0.693900
H441	H44	0.404300	0.020900	0.635600
C591	C59	0.458600	0.004500	0.739600
C601	C60	0.508800	0.054100	0.829300
C611	C61	0.433300	0.195500	0.675000
C621	C62	0.495500	0.283200	0.674200
H451	H45	0.560800	0.313200	0.706700
C631	C63	0.363000	0.286300	0.583000
C641	C64	0.301100	0.202500	0.590100
H461	H46	0.234600	0.177600	0.565500
C651	C65	0.332600	0.155800	0.630500
H471	H47	0.288600	0.097400	0.629300
C661	C66	0.327200	0.330800	0.536600
C671	C67	0.439300	0.905500	0.699300
C681	C68	0.346400	0.835300	0.636500
H481	H48	0.297100	0.851400	0.624900
C691	C69	0.330000	0.740100	0.591700
H491	H49	0.268100	0.692800	0.554900
C701	C70	0.403400	0.718400	0.602200
C711	C71	0.492800	0.789700	0.663500
H501	H50	0.543700	0.775300	0.671900
C721	C72	0.509000	0.876300	0.710300
H511	H51	0.569500	0.919000	0.752000
C731	C73	0.388600	0.619700	0.553200
C741	C74	0.492800	0.290200	0.148100
C751	C75	0.398500	0.221000	0.134400
H521	H52	0.369200	0.161500	0.089200
C761	C76	0.348500	0.242200	0.189300
H531	H53	0.287400	0.195800	0.182600
C771	C77	0.393600	0.337400	0.256400
C781	C78	0.482400	0.401100	0.265800
H541	H54	0.509100	0.462500	0.307800
C791	C79	0.539300	0.382500	0.216500
H551	H55	0.603000	0.427600	0.228100
C801	C80	0.340900	0.354600	0.314000
C811	C81	0.083400	0.378000	0.323800
C821	C82	0.990500	0.349100	0.267300
C831	C83	0.906700	0.299600	0.281100
H561	H56	0.911000	0.280500	0.326800
C841	C84	0.814700	0.276300	0.230000
H571	H57	0.760000	0.244500	0.243100
C851	C85	0.805300	0.301500	0.158100
C861	C86	0.888700	0.339700	0.134000
H581	H58	0.882900	0.346100	0.081700
C871	C87	0.981600	0.368100	0.191900
H591	H59	0.037200	0.399600	0.179800
C881	C88	0.463200	0.328500	0.625700
H601	H60	0.506800	0.384100	0.622400
Mn21	Mn2	0.500000	0.500000	0.500000
