data_WUYXAR_clean_PM
_symmetry_space_group_name_H-M	'P1'
_cell_length_a	15.508000
_cell_length_b	16.241000
_cell_length_c	18.383000
_cell_angle_alpha	108.709000
_cell_angle_beta	104.279000
_cell_angle_gamma	107.160000
_symmetry_Int_Tables_number 1

loop_
_symmetry_equiv_pos_as_xyz
'x,y,z'

loop_
_atom_site_label
_atom_site_type_symbol
_atom_site_fract_x
_atom_site_fract_y
_atom_site_fract_z
Cu11	Cu1	0.516430	0.669480	0.912960
O11	O1	0.636000	0.615800	0.009000
O21	O2	0.672900	0.739900	0.991500
O31	O3	0.454800	0.612300	0.065200
O41	O4	0.465300	0.719000	0.015100
O51	O5	0.428900	0.505700	0.875800
O61	O6	0.503100	0.542600	0.794300
O71	O7	0.535400	0.786700	0.868600
O81	O8	0.385200	0.675900	0.815800
O91	O9	0.246400	0.076600	0.475300
O101	O10	0.263700	0.794100	0.488300
O111	O11	0.377600	0.904300	0.398000
O121	O12	0.056700	0.875100	0.381600
C11	C1	0.695700	0.693200	0.029000
C21	C2	0.793800	0.726900	0.089600
C31	C3	0.820600	0.677100	0.132500
H11	H1	0.774300	0.619200	0.123100
C41	C4	0.911400	0.709400	0.187400
H21	H2	0.924200	0.673800	0.216300
C51	C5	0.982500	0.787000	0.202800
C61	C6	0.961300	0.834700	0.153300
H31	H3	0.010400	0.887100	0.156900
C71	C7	0.866300	0.802400	0.099300
H41	H4	0.852800	0.835700	0.068300
C81	C8	0.085900	0.817600	0.255900
C91	C9	0.149400	0.803800	0.219100
H51	H5	0.126200	0.775100	0.161500
C101	C10	0.248100	0.830200	0.263200
C111	C11	0.282000	0.876200	0.350600
C121	C12	0.214300	0.887000	0.391200
C131	C13	0.117700	0.858500	0.343500
C141	C14	0.020500	0.808400	0.410300
H61	H6	0.016400	0.747800	0.375500
H71	H7	0.063100	0.828200	0.466100
H81	H8	0.956800	0.802900	0.409200
C151	C15	0.438200	0.991900	0.402800
H91	H9	0.504400	0.998300	0.418600
H101	H10	0.417500	0.993400	0.349700
H111	H11	0.433600	0.043400	0.443300
C161	C16	0.309700	0.804700	0.220100
C171	C17	0.364600	0.754500	0.241800
H121	H12	0.371700	0.746600	0.290500
C181	C18	0.408300	0.716700	0.188800
H131	H13	0.441600	0.680900	0.201700
C191	C19	0.403400	0.730600	0.120600
C201	C20	0.355300	0.784100	0.099400
H141	H14	0.355100	0.796200	0.053200
C211	C21	0.308000	0.819200	0.147500
H151	H15	0.273900	0.853300	0.132100
C221	C22	0.448900	0.680800	0.061300
C231	C23	0.256900	0.934600	0.483100
C241	C24	0.271900	0.031300	0.523400
C251	C25	0.317700	0.080800	0.608300
C261	C26	0.343200	0.028800	0.652700
H161	H16	0.375100	0.061400	0.710000
C271	C27	0.324400	0.935500	0.617400
C281	C28	0.283900	0.891800	0.531600
C291	C29	0.345400	0.770400	0.494800
H171	H17	0.335800	0.724900	0.441700
H181	H18	0.403000	0.826700	0.513000
H191	H19	0.352700	0.743400	0.534200
C301	C30	0.161100	0.099000	0.483700
H201	H20	0.160600	0.149600	0.467600
H211	H21	0.101700	0.043500	0.448700
H221	H22	0.166400	0.118400	0.540300
C311	C31	0.346300	0.185700	0.655500
C321	C32	0.392100	0.248500	0.631600
H231	H23	0.401000	0.227700	0.581800
C331	C33	0.428000	0.348700	0.682300
H241	H24	0.463900	0.393100	0.667600
C341	C34	0.407900	0.378600	0.754700
C351	C35	0.358700	0.313600	0.775000
H251	H25	0.345200	0.334000	0.822600
C361	C36	0.325900	0.215700	0.727900
H261	H26	0.291700	0.171700	0.743800
C371	C37	0.447400	0.477400	0.812700
C381	C38	0.354300	0.888000	0.672100
C391	C39	0.443500	0.932700	0.736300
H271	H27	0.485200	0.994000	0.748500
C401	C40	0.470000	0.887600	0.781000
H281	H28	0.531800	0.918200	0.822600
C411	C41	0.413100	0.801400	0.769800
C421	C42	0.320600	0.756800	0.708500
H291	H29	0.278800	0.697300	0.700000
C431	C43	0.290000	0.799500	0.660000
H301	H30	0.227300	0.769900	0.619700
C441	C44	0.443700	0.748400	0.821600
Cu21	Cu2	0.483570	0.330520	0.087040
O131	O13	0.364000	0.384200	0.991000
O141	O14	0.327100	0.260100	0.008500
O151	O15	0.545200	0.387700	0.934800
O161	O16	0.534700	0.281000	0.984900
O171	O17	0.571100	0.494300	0.124200
O181	O18	0.496900	0.457400	0.205700
O191	O19	0.464600	0.213300	0.131400
O201	O20	0.614800	0.324100	0.184200
O211	O21	0.753600	0.923400	0.524700
O221	O22	0.736300	0.205900	0.511700
O231	O23	0.622400	0.095700	0.602000
O241	O24	0.943300	0.124900	0.618400
C451	C45	0.304300	0.306800	0.971000
C461	C46	0.206200	0.273100	0.910400
C471	C47	0.179400	0.322900	0.867500
H311	H31	0.225700	0.380800	0.876900
C481	C48	0.088600	0.290600	0.812600
H321	H32	0.075800	0.326200	0.783700
C491	C49	0.017500	0.213000	0.797200
C501	C50	0.038700	0.165300	0.846700
H331	H33	0.989600	0.112900	0.843100
C511	C51	0.133700	0.197600	0.900700
H341	H34	0.147200	0.164300	0.931700
C521	C52	0.914100	0.182400	0.744100
C531	C53	0.850600	0.196200	0.780900
H351	H35	0.873800	0.224900	0.838500
C541	C54	0.751900	0.169800	0.736800
C551	C55	0.718000	0.123800	0.649400
C561	C56	0.785700	0.113000	0.608800
C571	C57	0.882300	0.141500	0.656500
C581	C58	0.979500	0.191600	0.589700
H361	H36	0.983600	0.252200	0.624500
H371	H37	0.936900	0.171800	0.533900
H381	H38	0.043200	0.197100	0.590800
C591	C59	0.561800	0.008100	0.597200
H391	H39	0.495600	0.001700	0.581400
H401	H40	0.582500	0.006600	0.650300
H411	H41	0.566400	0.956600	0.556700
C601	C60	0.690300	0.195300	0.779900
C611	C61	0.635400	0.245500	0.758200
H421	H42	0.628300	0.253400	0.709500
C621	C62	0.591700	0.283300	0.811200
H431	H43	0.558400	0.319100	0.798300
C631	C63	0.596600	0.269400	0.879400
C641	C64	0.644700	0.215900	0.900600
H441	H44	0.644900	0.203800	0.946800
C651	C65	0.692000	0.180800	0.852500
H451	H45	0.726100	0.146700	0.867900
C661	C66	0.551100	0.319200	0.938700
C671	C67	0.743100	0.065400	0.516900
C681	C68	0.728100	0.968700	0.476600
C691	C69	0.682300	0.919200	0.391700
C701	C70	0.656800	0.971200	0.347300
H461	H46	0.624900	0.938600	0.290000
C711	C71	0.675600	0.064500	0.382600
C721	C72	0.716100	0.108200	0.468400
C731	C73	0.654600	0.229600	0.505200
H471	H47	0.664200	0.275100	0.558300
H481	H48	0.597000	0.173300	0.487000
H491	H49	0.647300	0.256600	0.465800
C741	C74	0.838900	0.901000	0.516300
H501	H50	0.839400	0.850400	0.532400
H511	H51	0.898300	0.956500	0.551300
H521	H52	0.833600	0.881600	0.459700
C751	C75	0.653700	0.814300	0.344500
C761	C76	0.607900	0.751500	0.368400
H531	H53	0.599000	0.772300	0.418200
C771	C77	0.572000	0.651300	0.317700
H541	H54	0.536100	0.606900	0.332400
C781	C78	0.592100	0.621400	0.245300
C791	C79	0.641300	0.686400	0.225000
H551	H55	0.654800	0.666000	0.177400
C801	C80	0.674100	0.784300	0.272100
H561	H56	0.708300	0.828300	0.256200
C811	C81	0.552600	0.522600	0.187300
C821	C82	0.645700	0.112000	0.327900
C831	C83	0.556500	0.067300	0.263700
H571	H57	0.514800	0.006000	0.251500
C841	C84	0.530000	0.112400	0.219000
H581	H58	0.468200	0.081800	0.177400
C851	C85	0.586900	0.198600	0.230200
C861	C86	0.679400	0.243200	0.291500
H591	H59	0.721200	0.302700	0.300000
C871	C87	0.710000	0.200500	0.340000
H601	H60	0.772700	0.230100	0.380300
C881	C88	0.556300	0.251600	0.178400
