data_WUYXUL_clean_PM
_symmetry_space_group_name_H-M	'P1'
_cell_length_a	15.785000
_cell_length_b	18.275000
_cell_length_c	28.066000
_cell_angle_alpha	104.478000
_cell_angle_beta	92.048000
_cell_angle_gamma	107.860000
_symmetry_Int_Tables_number 1

loop_
_symmetry_equiv_pos_as_xyz
'x,y,z'

loop_
_atom_site_label
_atom_site_type_symbol
_atom_site_fract_x
_atom_site_fract_y
_atom_site_fract_z
C11	C1	0.944600	0.185700	0.240700
C21	C2	0.877600	0.104500	0.219600
C31	C3	0.799400	0.093400	0.191500
H11	H1	0.783900	0.137600	0.189100
C41	C4	0.742800	0.017000	0.166700
H21	H2	0.690900	0.010700	0.147100
C51	C5	0.763400	0.950200	0.170900
C61	C6	0.840100	0.961400	0.201800
H31	H3	0.852500	0.917000	0.206700
C71	C7	0.899100	0.038200	0.225700
H41	H4	0.951300	0.044900	0.245200
C81	C8	0.714800	0.870600	0.136700
C91	C9	0.699100	0.864900	0.086800
H51	H5	0.713100	0.911600	0.076700
C101	C10	0.663500	0.792700	0.051700
C111	C11	0.639000	0.721400	0.066400
C121	C12	0.652700	0.727000	0.117800
C131	C13	0.690000	0.799700	0.150600
C141	C14	0.656800	0.793000	0.998900
C151	C15	0.616100	0.841600	0.983000
H61	H6	0.585500	0.868700	0.004700
C161	C16	0.620300	0.850400	0.936300
H71	H7	0.590800	0.881900	0.926300
C171	C17	0.668200	0.813000	0.903100
C181	C18	0.707800	0.763900	0.917700
H81	H8	0.739200	0.737900	0.895900
C191	C19	0.701500	0.752500	0.965100
H91	H9	0.727100	0.717800	0.974200
C201	C20	0.673600	0.825400	0.853400
C211	C21	0.636600	0.590100	0.023800
H101	H10	0.599600	0.546200	0.034600
H111	H11	0.695100	0.610300	0.042400
H121	H12	0.641700	0.572100	0.989200
C221	C22	0.633000	0.822100	0.227800
H131	H13	0.646900	0.827400	0.262400
H141	H14	0.577000	0.780300	0.215200
H151	H15	0.628700	0.871600	0.223800
C231	C23	0.411000	0.619000	0.094600
H161	H16	0.373300	0.649900	0.090200
H171	H17	0.375100	0.569500	0.099900
H181	H18	0.440200	0.608200	0.065500
C241	C24	0.839300	0.696400	0.177000
H191	H19	0.895800	0.715900	0.165000
H201	H20	0.845000	0.665200	0.199100
H211	H21	0.821800	0.740800	0.194400
C251	C25	0.622800	0.653000	0.135600
C261	C26	0.535400	0.624300	0.145100
C271	C27	0.509400	0.559200	0.165500
C281	C28	0.572300	0.527000	0.176200
H221	H22	0.554900	0.484900	0.190500
C291	C29	0.661500	0.553200	0.166900
C301	C30	0.686200	0.617800	0.146600
C311	C31	0.417300	0.529200	0.180700
C321	C32	0.371000	0.447300	0.164800
H231	H23	0.392900	0.413000	0.142200
C331	C33	0.290600	0.418300	0.184000
H241	H24	0.257300	0.364300	0.172600
C341	C34	0.382100	0.579700	0.213800
H251	H25	0.411400	0.634600	0.222700
C351	C35	0.305100	0.549600	0.233500
H261	H26	0.282900	0.583500	0.256300
C361	C36	0.260200	0.467000	0.218700
C371	C37	0.182400	0.436800	0.243500
C381	C38	0.726000	0.517600	0.183800
C391	C39	0.724600	0.502200	0.229500
H271	H27	0.680000	0.512100	0.248400
C401	C40	0.783900	0.473700	0.248900
H281	H28	0.781100	0.465900	0.280300
C411	C41	0.849800	0.456500	0.219800
C421	C42	0.853900	0.470400	0.173600
H291	H29	0.897400	0.459000	0.154300
C431	C43	0.793900	0.501100	0.156200
H301	H30	0.798200	0.511300	0.125400
C441	C44	0.914000	0.423500	0.238300
C451	C45	0.207800	0.075100	0.270100
C461	C46	0.127000	0.047400	0.292100
C471	C47	0.095900	0.093700	0.326300
H311	H31	0.126400	0.148400	0.336200
C481	C48	0.021700	0.064800	0.347500
H321	H32	0.001900	0.099500	0.371100
C491	C49	0.973600	0.980800	0.333700
C501	C50	0.008300	0.931300	0.300100
H331	H33	0.979300	0.876400	0.291200
C511	C51	0.083800	0.961300	0.279700
H341	H34	0.107500	0.927200	0.258100
C521	C52	0.887200	0.952200	0.350900
C531	C53	0.820500	0.988900	0.344900
H351	H35	0.837300	0.033300	0.332600
C541	C54	0.735300	0.964300	0.355700
C551	C55	0.711000	0.898600	0.375500
C561	C56	0.771900	0.859100	0.382400
C571	C57	0.858600	0.887500	0.371400
C581	C58	0.994500	0.886300	0.409200
H361	H36	0.025900	0.850300	0.412900
H371	H37	0.979100	0.910000	0.440800
H381	H38	0.032100	0.927500	0.396500
C591	C59	0.543600	0.831100	0.355700
H391	H39	0.538400	0.860400	0.332300
H401	H40	0.494300	0.827000	0.375000
H411	H41	0.542700	0.778400	0.338200
C601	C60	0.672100	0.003000	0.342200
C611	C61	0.675900	0.018600	0.295900
H421	H42	0.718900	0.006700	0.276400
C621	C62	0.616600	0.051800	0.278300
H431	H43	0.619100	0.059700	0.246800
C631	C63	0.553200	0.073200	0.307900
C641	C64	0.551800	0.057000	0.354700
H441	H44	0.509500	0.068600	0.374800
C651	C65	0.611400	0.024700	0.371300
H451	H45	0.610200	0.017400	0.402900
C661	C66	0.709100	0.702000	0.284700
H461	H46	0.678900	0.695700	0.252900
H471	H47	0.723500	0.654600	0.284500
H481	H48	0.763300	0.747000	0.291600
C671	C67	0.811300	0.904500	0.509400
H491	H49	0.766000	0.919700	0.494500
H501	H50	0.862400	0.951200	0.523800
H511	H51	0.787900	0.880000	0.534800
C681	C68	0.741000	0.784300	0.398500
C691	C69	0.685500	0.713700	0.367300
C701	C70	0.659900	0.641600	0.379700
C711	C71	0.695100	0.644300	0.428100
H521	H52	0.678600	0.597700	0.438300
C721	C72	0.753700	0.714500	0.460500
C731	C73	0.776600	0.784700	0.445700
C741	C74	0.786700	0.709900	0.510600
C751	C75	0.869700	0.710700	0.520600
H531	H53	0.909600	0.719600	0.497400
C761	C76	0.899700	0.698600	0.564400
H541	H54	0.956800	0.695000	0.569100
C771	C77	0.844200	0.692200	0.600200
C781	C78	0.765700	0.703600	0.593100
H551	H55	0.730400	0.706400	0.618800
C791	C79	0.735300	0.711300	0.547500
H561	H56	0.679500	0.717400	0.542900
C801	C80	0.872600	0.680000	0.647700
C811	C81	0.599500	0.566400	0.349000
C821	C82	0.516400	0.560700	0.324700
H571	H57	0.501700	0.606400	0.325200
C831	C83	0.457400	0.485400	0.300000
H581	H58	0.404600	0.482600	0.282800
C841	C84	0.471500	0.416600	0.299400
C851	C85	0.558400	0.421200	0.320900
H591	H59	0.574400	0.375400	0.317600
C861	C86	0.617000	0.495700	0.346500
H601	H60	0.670800	0.498500	0.362800
C871	C87	0.406200	0.333800	0.274600
C881	C88	0.491000	0.105200	0.289200
O11	O1	0.025000	0.192500	0.247700
O21	O2	0.916500	0.244700	0.247300
O31	O3	0.921400	0.425300	0.284700
O41	O4	0.964600	0.397500	0.211000
O51	O5	0.149700	0.475500	0.276400
O61	O6	0.144000	0.354700	0.229520
O71	O7	0.235400	0.156800	0.274100
O81	O8	0.254000	0.037100	0.248200
O91	O9	0.720000	0.788900	0.824700
O101	O10	0.635300	0.867600	0.839900
O111	O11	0.324300	0.329700	0.265970
O121	O12	0.438800	0.277500	0.264900
O131	O13	0.485400	0.102600	0.243100
O141	O14	0.436600	0.132200	0.315200
O151	O15	0.936300	0.652400	0.648800
O161	O16	0.832300	0.698500	0.683800
O171	O17	0.475700	0.662100	0.135700
O181	O18	0.773600	0.648300	0.136500
O191	O19	0.598400	0.649800	0.031400
O201	O20	0.703100	0.802700	0.201000
O211	O21	0.652700	0.715200	0.321600
O221	O22	0.835300	0.854300	0.476000
O231	O23	0.623400	0.870500	0.386700
O241	O24	0.915400	0.843800	0.375800
Nd11	Nd1	0.177860	0.234490	0.232240
Cd11	Cd1	0.369350	0.148930	0.241100
Cd21	Cd2	0.025740	0.361050	0.277780
C891	C89	0.055400	0.814300	0.759300
C901	C90	0.122400	0.895500	0.780400
C911	C91	0.200600	0.906600	0.808500
H611	H61	0.216100	0.862400	0.810900
C921	C92	0.257200	0.983000	0.833300
H621	H62	0.309100	0.989300	0.852900
C931	C93	0.236600	0.049800	0.829100
C941	C94	0.159900	0.038600	0.798200
H631	H63	0.147500	0.083000	0.793300
C951	C95	0.100900	0.961800	0.774300
H641	H64	0.048700	0.955100	0.754800
C961	C96	0.285200	0.129400	0.863300
C971	C97	0.300900	0.135100	0.913200
H651	H65	0.286900	0.088400	0.923300
C981	C98	0.336500	0.207300	0.948300
C991	C99	0.361000	0.278600	0.933600
C1001	C100	0.347300	0.273000	0.882200
C1011	C101	0.310000	0.200300	0.849400
C1021	C102	0.343200	0.207000	0.001100
C1031	C103	0.383900	0.158400	0.017000
H661	H66	0.414500	0.131300	0.995300
C1041	C104	0.379700	0.149600	0.063700
H671	H67	0.409200	0.118100	0.073700
C1051	C105	0.331800	0.187000	0.096900
C1061	C106	0.292200	0.236100	0.082300
H681	H68	0.260800	0.262100	0.104100
C1071	C107	0.298500	0.247500	0.034900
H691	H69	0.272900	0.282200	0.025800
C1081	C108	0.326400	0.174600	0.146600
C1091	C109	0.363400	0.409900	0.976200
H701	H70	0.400400	0.453800	0.965400
H711	H71	0.304900	0.389700	0.957600
H721	H72	0.358300	0.427900	0.010800
C1101	C110	0.367000	0.177900	0.772200
H731	H73	0.353100	0.172600	0.737600
H741	H74	0.423000	0.219700	0.784800
H751	H75	0.371300	0.128400	0.776200
C1111	C111	0.589000	0.381000	0.905400
H761	H76	0.626700	0.350100	0.909800
H771	H77	0.624900	0.430500	0.900100
H781	H78	0.559800	0.391800	0.934500
C1121	C112	0.160700	0.303600	0.823000
H791	H79	0.104200	0.284100	0.835000
H801	H80	0.155000	0.334800	0.800900
H811	H81	0.178200	0.259200	0.805600
C1131	C113	0.377200	0.347000	0.864400
C1141	C114	0.464600	0.375700	0.854900
C1151	C115	0.490600	0.440800	0.834500
C1161	C116	0.427700	0.473000	0.823800
H821	H82	0.445100	0.515100	0.809500
C1171	C117	0.338500	0.446800	0.833100
C1181	C118	0.313800	0.382200	0.853400
C1191	C119	0.582700	0.470800	0.819300
C1201	C120	0.629000	0.552700	0.835200
H831	H83	0.607100	0.587000	0.857800
C1211	C121	0.709400	0.581700	0.816000
H841	H84	0.742700	0.635700	0.827400
C1221	C122	0.617900	0.420300	0.786200
H851	H85	0.588600	0.365400	0.777300
C1231	C123	0.694900	0.450400	0.766500
H861	H86	0.717100	0.416500	0.743700
C1241	C124	0.739800	0.533000	0.781300
C1251	C125	0.817600	0.563200	0.756500
C1261	C126	0.274000	0.482400	0.816200
C1271	C127	0.275400	0.497800	0.770500
H871	H87	0.320000	0.487900	0.751600
C1281	C128	0.216100	0.526300	0.751100
H881	H88	0.218900	0.534100	0.719700
C1291	C129	0.150200	0.543500	0.780200
C1301	C130	0.146100	0.529600	0.826400
H891	H89	0.102600	0.541000	0.845700
C1311	C131	0.206100	0.498900	0.843800
H901	H90	0.201800	0.488700	0.874600
C1321	C132	0.086000	0.576500	0.761700
C1331	C133	0.792200	0.924900	0.729900
C1341	C134	0.873000	0.952600	0.707900
C1351	C135	0.904100	0.906300	0.673700
H911	H91	0.873600	0.851600	0.663800
C1361	C136	0.978300	0.935200	0.652500
H921	H92	0.998100	0.900500	0.628900
C1371	C137	0.026400	0.019200	0.666300
C1381	C138	0.991700	0.068700	0.699900
H931	H93	0.020700	0.123600	0.708800
C1391	C139	0.916200	0.038700	0.720300
H941	H94	0.892500	0.072800	0.741900
C1401	C140	0.112800	0.047800	0.649100
C1411	C141	0.179500	0.011100	0.655100
H951	H95	0.162700	0.966700	0.667400
C1421	C142	0.264700	0.035700	0.644300
C1431	C143	0.289000	0.101400	0.624500
C1441	C144	0.228100	0.140900	0.617600
C1451	C145	0.141400	0.112500	0.628600
C1461	C146	0.005500	0.113700	0.590800
H961	H96	0.974100	0.149700	0.587100
H971	H97	0.020900	0.090000	0.559200
H981	H98	0.967900	0.072500	0.603500
C1471	C147	0.456400	0.168900	0.644300
H991	H99	0.461600	0.139600	0.667700
H1001	H100	0.505700	0.173000	0.625000
H1011	H101	0.457300	0.221600	0.661800
C1481	C148	0.327900	0.997000	0.657800
C1491	C149	0.324100	0.981400	0.704100
H1021	H102	0.281100	0.993300	0.723600
C1501	C150	0.383400	0.948200	0.721700
H1031	H103	0.380900	0.940300	0.753200
C1511	C151	0.446800	0.926800	0.692100
C1521	C152	0.448200	0.943000	0.645300
H1041	H104	0.490500	0.931400	0.625200
C1531	C153	0.388600	0.975300	0.628700
H1051	H105	0.389800	0.982600	0.597100
C1541	C154	0.290900	0.298000	0.715300
H1061	H106	0.321100	0.304300	0.747100
H1071	H107	0.276500	0.345400	0.715500
H1081	H108	0.236700	0.253000	0.708400
C1551	C155	0.188700	0.095500	0.490600
H1091	H109	0.234000	0.080300	0.505500
H1101	H110	0.137600	0.048800	0.476200
H1111	H111	0.212100	0.120000	0.465200
C1561	C156	0.259000	0.215700	0.601500
C1571	C157	0.314500	0.286300	0.632700
C1581	C158	0.340100	0.358400	0.620300
C1591	C159	0.304900	0.355700	0.571900
H1121	H112	0.321400	0.402300	0.561700
C1601	C160	0.246300	0.285500	0.539500
C1611	C161	0.223400	0.215300	0.554300
C1621	C162	0.213300	0.290100	0.489400
C1631	C163	0.130300	0.289300	0.479400
H1131	H113	0.090400	0.280400	0.502600
C1641	C164	0.100300	0.301400	0.435600
H1141	H114	0.043200	0.305000	0.430900
C1651	C165	0.155800	0.307800	0.399800
C1661	C166	0.234300	0.296400	0.406900
H1151	H115	0.269600	0.293600	0.381200
C1671	C167	0.264700	0.288700	0.452500
H1161	H116	0.320500	0.282600	0.457100
C1681	C168	0.127400	0.320000	0.352300
C1691	C169	0.400500	0.433600	0.651000
C1701	C170	0.483600	0.439300	0.675300
H1171	H117	0.498300	0.393600	0.674800
C1711	C171	0.542600	0.514600	0.700000
H1181	H118	0.595400	0.517400	0.717200
C1721	C172	0.528500	0.583400	0.700600
C1731	C173	0.441600	0.578800	0.679100
H1191	H119	0.425600	0.624600	0.682400
C1741	C174	0.383000	0.504300	0.653500
H1201	H120	0.329200	0.501500	0.637200
C1751	C175	0.593800	0.666200	0.725400
C1761	C176	0.509000	0.894800	0.710800
O251	O25	0.975000	0.807500	0.752300
O261	O26	0.083500	0.755300	0.752700
O271	O27	0.078600	0.574700	0.715300
O281	O28	0.035400	0.602500	0.789000
O291	O29	0.850300	0.524500	0.723600
O301	O30	0.856000	0.645300	0.770480
O311	O31	0.764600	0.843200	0.725900
O321	O32	0.746000	0.962900	0.751800
O331	O33	0.280000	0.211100	0.175300
O341	O34	0.364700	0.132400	0.160100
O351	O35	0.675700	0.670300	0.734030
O361	O36	0.561200	0.722500	0.735100
O371	O37	0.514600	0.897400	0.756900
O381	O38	0.563400	0.867800	0.684800
O391	O39	0.063700	0.347600	0.351200
O401	O40	0.167700	0.301500	0.316200
O411	O41	0.524300	0.337900	0.864300
O421	O42	0.226400	0.351700	0.863500
O431	O43	0.401600	0.350200	0.968600
O441	O44	0.296900	0.197300	0.799000
O451	O45	0.347300	0.284800	0.678400
O461	O46	0.164700	0.145700	0.524000
O471	O47	0.376600	0.129500	0.613300
O481	O48	0.084600	0.156200	0.624200
Nd21	Nd2	0.822140	0.765510	0.767760
Cd31	Cd3	0.630650	0.851070	0.758900
Cd41	Cd4	0.974260	0.638950	0.722220
