data_WUYXIZ_clean_PM
_symmetry_space_group_name_H-M	'P1'
_cell_length_a	15.744000
_cell_length_b	18.343000
_cell_length_c	28.121000
_cell_angle_alpha	104.422000
_cell_angle_beta	92.252000
_cell_angle_gamma	108.122000
_symmetry_Int_Tables_number 1

loop_
_symmetry_equiv_pos_as_xyz
'x,y,z'

loop_
_atom_site_label
_atom_site_type_symbol
_atom_site_fract_x
_atom_site_fract_y
_atom_site_fract_z
Cd11	Cd1	0.521890	0.859820	0.277710
Cd21	Cd2	0.870490	0.649480	0.240770
O11	O1	0.639100	0.857800	0.228750
O21	O2	0.646900	0.975700	0.275900
O31	O3	0.974000	0.162500	0.136040
O41	O4	0.270700	0.146900	0.135450
O51	O5	0.094500	0.150200	0.031190
O61	O6	0.202100	0.302900	0.201420
O71	O7	0.217600	0.291700	0.825760
O81	O8	0.134800	0.372600	0.841200
O91	O9	0.407700	0.743200	0.248500
O101	O10	0.521100	0.695700	0.249000
O111	O11	0.461000	0.896200	0.211300
O121	O12	0.417000	0.925400	0.285250
O131	O13	0.828400	0.830000	0.265120
O141	O14	0.940900	0.778200	0.265500
O151	O15	0.153700	0.215200	0.321260
O161	O16	0.334700	0.353700	0.476400
C11	C1	0.308500	0.396500	0.514800
H11	H1	0.280900	0.430300	0.503700
H21	H2	0.359900	0.428900	0.538800
H31	H3	0.265900	0.361500	0.529500
O171	O17	0.332300	0.195800	0.683240
O181	O18	0.438300	0.152000	0.648760
O191	O19	0.415400	0.344900	0.376100
O201	O20	0.123700	0.369300	0.385600
O211	O21	0.938600	0.632700	0.316100
O221	O22	0.986600	0.603500	0.243700
O231	O23	0.754400	0.535300	0.247800
O241	O24	0.735700	0.653400	0.273920
C21	C2	0.910800	0.834400	0.273900
C31	C3	0.977900	0.916100	0.296900
C41	C4	0.958600	0.984400	0.297900
H41	H4	0.903800	0.980400	0.282000
C51	C5	0.019900	0.060100	0.322400
H51	H5	0.007300	0.106000	0.321100
C61	C6	0.100400	0.066000	0.348900
C71	C7	0.119300	0.994300	0.345700
H61	H6	0.173700	0.997000	0.361500
C81	C8	0.061400	0.923100	0.320900
H71	H7	0.076400	0.877500	0.319400
C91	C9	0.161100	0.142000	0.381200
C101	C10	0.186500	0.215700	0.368800
C111	C11	0.242500	0.284900	0.399500
C121	C12	0.278600	0.285100	0.446200
C131	C13	0.254600	0.214600	0.460200
C141	C14	0.196600	0.145100	0.428400
H81	H8	0.180500	0.098700	0.438600
C151	C15	0.211800	0.202900	0.284700
H91	H9	0.180500	0.192800	0.252500
H101	H10	0.229600	0.157900	0.286200
H111	H11	0.264200	0.249600	0.290800
C161	C16	0.288900	0.210600	0.510700
C171	C17	0.240000	0.212600	0.547700
H121	H12	0.184400	0.219500	0.543300
C181	C18	0.268200	0.204800	0.593000
H131	H13	0.233400	0.209000	0.618900
C191	C19	0.345500	0.191400	0.599100
C201	C20	0.402600	0.197400	0.564800
H141	H14	0.459500	0.193100	0.569500
C211	C21	0.369800	0.210600	0.520400
H151	H15	0.409400	0.219800	0.497200
C221	C22	0.374400	0.177600	0.648200
C231	C23	0.270100	0.358400	0.382700
C241	C24	0.358300	0.386700	0.370700
C251	C25	0.387000	0.453800	0.352400
C261	C26	0.322500	0.489500	0.345800
H161	H16	0.339600	0.533500	0.333200
C271	C27	0.234100	0.463600	0.356700
C281	C28	0.209300	0.396300	0.374600
C291	C29	0.105900	0.378100	0.433700
H171	H17	0.131000	0.345900	0.448200
H181	H18	0.042000	0.361500	0.434400
H191	H19	0.132500	0.433100	0.452200
C301	C30	0.496300	0.387500	0.409300
H201	H20	0.535000	0.355500	0.406100
H211	H21	0.482100	0.399100	0.442600
H221	H22	0.526400	0.436400	0.401500
C311	C31	0.171200	0.502200	0.342300
C321	C32	0.174800	0.518200	0.295400
H231	H23	0.216900	0.505800	0.275500
C331	C33	0.116600	0.551800	0.279300
H241	H24	0.119100	0.561300	0.248300
C341	C34	0.054100	0.571900	0.308900
C351	C35	0.050900	0.557500	0.355100
H251	H25	0.009800	0.571200	0.375300
C361	C36	0.108900	0.522800	0.371100
H261	H26	0.105800	0.513100	0.402100
C371	C37	0.989300	0.605600	0.289600
C381	C38	0.473300	0.482800	0.334400
C391	C39	0.507900	0.432900	0.300300
H271	H27	0.478300	0.378000	0.291400
C401	C40	0.583100	0.462300	0.280100
H281	H28	0.604200	0.427300	0.257800
C411	C41	0.631200	0.546500	0.292100
C421	C42	0.597700	0.595100	0.326900
H291	H29	0.627900	0.649800	0.336500
C431	C43	0.520100	0.564400	0.348000
H301	H30	0.499600	0.598700	0.371200
C441	C44	0.711700	0.577100	0.269100
C451	C45	0.676500	0.934100	0.242600
C461	C46	0.754800	0.968200	0.218000
C471	C47	0.785900	0.918700	0.183100
H311	H31	0.753800	0.864400	0.172000
C481	C48	0.865500	0.950400	0.164300
H321	H32	0.885500	0.917200	0.140100
C491	C49	0.914900	0.030100	0.181200
C501	C50	0.881000	0.079500	0.214500
H331	H33	0.911700	0.134100	0.223800
C511	C51	0.803600	0.050600	0.234500
H341	H34	0.783800	0.084600	0.258400
C521	C52	0.006200	0.060400	0.166000
C531	C53	0.068700	0.026200	0.175800
H351	H35	0.051100	0.982700	0.188800
C541	C54	0.159300	0.055100	0.166600
C551	C55	0.183100	0.117800	0.146900
C561	C56	0.121900	0.153600	0.136100
C571	C57	0.033400	0.123800	0.144600
C581	C58	0.908600	0.119800	0.095000
H361	H36	0.868200	0.148800	0.092200
H371	H37	0.875400	0.068600	0.099100
H381	H38	0.937500	0.112600	0.065500
C591	C59	0.336000	0.194600	0.176100
H391	H39	0.394800	0.205800	0.165400
H401	H40	0.333100	0.166700	0.201000
H411	H41	0.324700	0.243700	0.189500
C601	C60	0.150400	0.226100	0.117100
C611	C61	0.188300	0.299500	0.150700
C621	C62	0.212400	0.370900	0.137200
C631	C63	0.197300	0.365100	0.087700
H421	H42	0.211900	0.411800	0.077900
C641	C64	0.161100	0.292200	0.051400
C651	C65	0.136200	0.221000	0.066800
C661	C66	0.133400	0.320300	0.229600
H431	H43	0.147600	0.321800	0.263400
H441	H44	0.076400	0.279500	0.216000
H451	H45	0.130000	0.371100	0.228100
C671	C67	0.263100	0.449600	0.170400
C681	C68	0.338700	0.461800	0.202800
H461	H46	0.350800	0.418100	0.208700
C691	C69	0.397800	0.540200	0.226900
H471	H47	0.450800	0.548000	0.246300
C701	C70	0.374700	0.605100	0.220900
C711	C71	0.294900	0.591700	0.192300
H481	H48	0.277700	0.635000	0.190200
C721	C72	0.240000	0.515600	0.166600
H491	H49	0.187700	0.508400	0.146900
C731	C73	0.436100	0.685700	0.240500
C741	C74	0.154000	0.293600	0.998700
C751	C75	0.114000	0.342200	0.983900
H501	H50	0.083500	0.368500	0.005900
C761	C76	0.117600	0.353400	0.936900
H511	H51	0.088400	0.385400	0.927400
C771	C77	0.166100	0.315700	0.903600
C781	C78	0.206000	0.264300	0.918800
H521	H52	0.237200	0.238200	0.897200
C791	C79	0.199200	0.252700	0.964900
H531	H53	0.224400	0.217700	0.974100
C801	C80	0.171700	0.327300	0.854400
C811	C81	0.224000	0.017700	0.183800
C821	C82	0.288400	0.000500	0.156200
H541	H54	0.291800	0.009900	0.125200
C831	C83	0.349600	0.968900	0.174200
H551	H55	0.391700	0.955900	0.154500
C841	C84	0.347900	0.957100	0.220300
C851	C85	0.280800	0.974100	0.249100
H561	H56	0.278200	0.966200	0.280500
C861	C86	0.219800	0.002400	0.230000
H571	H57	0.174400	0.011700	0.248300
C871	C87	0.414700	0.924000	0.240200
C881	C88	0.136900	0.089000	0.023000
H581	H58	0.141300	0.071300	0.988300
H591	H59	0.101300	0.044800	0.033900
H601	H60	0.196100	0.110600	0.041200
La11	La1	0.323510	0.265390	0.768710
Cd31	Cd3	0.478110	0.140180	0.722290
Cd41	Cd4	0.129510	0.350520	0.759230
O251	O25	0.360900	0.142200	0.771250
O261	O26	0.353100	0.024300	0.724100
O271	O27	0.026000	0.837500	0.863960
O281	O28	0.729300	0.853100	0.864550
O291	O29	0.905500	0.849800	0.968810
O301	O30	0.797900	0.697100	0.798580
O311	O31	0.782400	0.708300	0.174240
O321	O32	0.865200	0.627400	0.158800
O331	O33	0.592300	0.256800	0.751500
O341	O34	0.478900	0.304300	0.751000
O351	O35	0.539000	0.103800	0.788700
O361	O36	0.583000	0.074600	0.714750
O371	O37	0.171600	0.170000	0.734880
O381	O38	0.059100	0.221800	0.734500
O391	O39	0.846300	0.784800	0.678740
O401	O40	0.665300	0.646300	0.523600
C891	C89	0.691500	0.603500	0.485200
H611	H61	0.719100	0.569700	0.496300
H621	H62	0.640100	0.571100	0.461200
H631	H63	0.734100	0.638500	0.470500
O411	O41	0.667700	0.804200	0.316760
O421	O42	0.561700	0.848000	0.351240
O431	O43	0.584600	0.655100	0.623900
O441	O44	0.876300	0.630700	0.614400
O451	O45	0.061400	0.367300	0.683900
O461	O46	0.013400	0.396500	0.756300
O471	O47	0.245600	0.464700	0.752200
O481	O48	0.264300	0.346600	0.726080
C901	C90	0.089200	0.165600	0.726100
C911	C91	0.022100	0.083900	0.703100
C921	C92	0.041400	0.015600	0.702100
H641	H64	0.096200	0.019600	0.718000
C931	C93	0.980100	0.939900	0.677600
H651	H65	0.992700	0.894000	0.678900
C941	C94	0.899600	0.934000	0.651100
C951	C95	0.880700	0.005700	0.654300
H661	H66	0.826300	0.003000	0.638500
C961	C96	0.938600	0.076900	0.679100
H671	H67	0.923600	0.122500	0.680600
C971	C97	0.838900	0.858000	0.618800
C981	C98	0.813500	0.784300	0.631200
C991	C99	0.757500	0.715100	0.600500
C1001	C100	0.721400	0.714900	0.553800
C1011	C101	0.745400	0.785400	0.539800
C1021	C102	0.803400	0.854900	0.571600
H681	H68	0.819500	0.901300	0.561400
C1031	C103	0.788200	0.797100	0.715300
H691	H69	0.819500	0.807200	0.747500
H701	H70	0.770400	0.842100	0.713800
H711	H71	0.735800	0.750400	0.709200
C1041	C104	0.711100	0.789400	0.489300
C1051	C105	0.760000	0.787400	0.452300
H721	H72	0.815600	0.780500	0.456700
C1061	C106	0.731800	0.795200	0.407000
H731	H73	0.766600	0.791000	0.381100
C1071	C107	0.654500	0.808600	0.400900
C1081	C108	0.597400	0.802600	0.435200
H741	H74	0.540500	0.806900	0.430500
C1091	C109	0.630200	0.789400	0.479600
H751	H75	0.590600	0.780200	0.502800
C1101	C110	0.625600	0.822400	0.351800
C1111	C111	0.729900	0.641600	0.617300
C1121	C112	0.641700	0.613300	0.629300
C1131	C113	0.613000	0.546200	0.647600
C1141	C114	0.677500	0.510500	0.654200
H761	H76	0.660400	0.466500	0.666800
C1151	C115	0.765900	0.536400	0.643300
C1161	C116	0.790700	0.603700	0.625400
C1171	C117	0.894100	0.621900	0.566300
H771	H77	0.869000	0.654100	0.551800
H781	H78	0.958000	0.638500	0.565600
H791	H79	0.867500	0.566900	0.547800
C1181	C118	0.503700	0.612500	0.590700
H801	H80	0.465000	0.644500	0.593900
H811	H81	0.517900	0.600900	0.557400
H821	H82	0.473600	0.563600	0.598500
C1191	C119	0.828800	0.497800	0.657700
C1201	C120	0.825200	0.481800	0.704600
H831	H83	0.783100	0.494200	0.724500
C1211	C121	0.883400	0.448200	0.720700
H841	H84	0.880900	0.438700	0.751700
C1221	C122	0.945900	0.428100	0.691100
C1231	C123	0.949100	0.442500	0.644900
H851	H85	0.990200	0.428800	0.624700
C1241	C124	0.891100	0.477200	0.628900
H861	H86	0.894200	0.486900	0.597900
C1251	C125	0.010700	0.394400	0.710400
C1261	C126	0.526700	0.517200	0.665600
C1271	C127	0.492100	0.567100	0.699700
H871	H87	0.521700	0.622000	0.708600
C1281	C128	0.416900	0.537700	0.719900
H881	H88	0.395800	0.572700	0.742200
C1291	C129	0.368800	0.453500	0.707900
C1301	C130	0.402300	0.404900	0.673100
H891	H89	0.372100	0.350200	0.663500
C1311	C131	0.479900	0.435600	0.652000
H901	H90	0.500400	0.401300	0.628800
C1321	C132	0.288300	0.422900	0.730900
C1331	C133	0.323500	0.065900	0.757400
C1341	C134	0.245200	0.031800	0.782000
C1351	C135	0.214100	0.081300	0.816900
H911	H91	0.246200	0.135600	0.828000
C1361	C136	0.134500	0.049600	0.835700
H921	H92	0.114500	0.082800	0.859900
C1371	C137	0.085100	0.969900	0.818800
C1381	C138	0.119000	0.920500	0.785500
H931	H93	0.088300	0.865900	0.776200
C1391	C139	0.196400	0.949400	0.765500
H941	H94	0.216200	0.915400	0.741600
C1401	C140	0.993800	0.939600	0.834000
C1411	C141	0.931300	0.973800	0.824200
H951	H95	0.948900	0.017300	0.811200
C1421	C142	0.840700	0.944900	0.833400
C1431	C143	0.816900	0.882200	0.853100
C1441	C144	0.878100	0.846400	0.863900
C1451	C145	0.966600	0.876200	0.855400
C1461	C146	0.091400	0.880200	0.905000
H961	H96	0.131800	0.851200	0.907800
H971	H97	0.124600	0.931400	0.900900
H981	H98	0.062500	0.887400	0.934500
C1471	C147	0.664000	0.805400	0.823900
H991	H99	0.605200	0.794200	0.834600
H1001	H100	0.666900	0.833300	0.799000
H1011	H101	0.675300	0.756300	0.810500
C1481	C148	0.849600	0.773900	0.882900
C1491	C149	0.811700	0.700500	0.849300
C1501	C150	0.787600	0.629100	0.862800
C1511	C151	0.802700	0.634900	0.912300
H1021	H102	0.788100	0.588200	0.922100
C1521	C152	0.838900	0.707800	0.948600
C1531	C153	0.863800	0.779000	0.933200
C1541	C154	0.866600	0.679700	0.770400
H1031	H103	0.852400	0.678200	0.736600
H1041	H104	0.923600	0.720500	0.784000
H1051	H105	0.870000	0.628900	0.771900
C1551	C155	0.736900	0.550400	0.829600
C1561	C156	0.661300	0.538200	0.797200
H1061	H106	0.649200	0.581900	0.791300
C1571	C157	0.602200	0.459800	0.773100
H1071	H107	0.549200	0.452000	0.753700
C1581	C158	0.625300	0.394900	0.779100
C1591	C159	0.705100	0.408300	0.807700
H1081	H108	0.722300	0.365000	0.809800
C1601	C160	0.760000	0.484400	0.833400
H1091	H109	0.812300	0.491600	0.853100
C1611	C161	0.563900	0.314300	0.759500
C1621	C162	0.846000	0.706400	0.001300
C1631	C163	0.886000	0.657800	0.016100
H1101	H110	0.916500	0.631500	0.994100
C1641	C164	0.882400	0.646600	0.063100
H1111	H111	0.911600	0.614600	0.072600
C1651	C165	0.833900	0.684300	0.096400
C1661	C166	0.794000	0.735700	0.081200
H1121	H112	0.762800	0.761800	0.102800
C1671	C167	0.800800	0.747300	0.035100
H1131	H113	0.775600	0.782300	0.025900
C1681	C168	0.828300	0.672700	0.145600
C1691	C169	0.776000	0.982300	0.816200
C1701	C170	0.711600	0.999500	0.843800
H1141	H114	0.708200	0.990100	0.874800
C1711	C171	0.650400	0.031100	0.825800
H1151	H115	0.608300	0.044100	0.845500
C1721	C172	0.652100	0.042900	0.779700
C1731	C173	0.719200	0.025900	0.750900
H1161	H116	0.721800	0.033800	0.719500
C1741	C174	0.780200	0.997600	0.770000
H1171	H117	0.825600	0.988300	0.751700
C1751	C175	0.585300	0.076000	0.759800
C1761	C176	0.863100	0.911000	0.977000
H1181	H118	0.858700	0.928700	0.011700
H1191	H119	0.898700	0.955200	0.966100
H1201	H120	0.803900	0.889400	0.958800
