data_WUYYEW_clean_PM
_symmetry_space_group_name_H-M	'P1'
_cell_length_a	15.813000
_cell_length_b	18.213000
_cell_length_c	27.961000
_cell_angle_alpha	104.736000
_cell_angle_beta	91.538000
_cell_angle_gamma	107.955000
_symmetry_Int_Tables_number 1

loop_
_symmetry_equiv_pos_as_xyz
'x,y,z'

loop_
_atom_site_label
_atom_site_type_symbol
_atom_site_fract_x
_atom_site_fract_y
_atom_site_fract_z
Cd11	Cd1	0.358750	0.146710	0.741350
Cd21	Cd2	0.169820	0.233560	0.731770
Cd31	Cd3	0.022690	0.366100	0.782570
O11	O1	0.314900	0.326900	0.765800
O21	O2	0.423700	0.275700	0.765200
O31	O3	0.835600	0.701900	0.184600
O41	O4	0.933200	0.646000	0.146700
O51	O5	0.243000	0.032800	0.747100
O61	O6	0.223900	0.155400	0.775700
O71	O7	0.474500	0.101300	0.743000
O81	O8	0.425900	0.129700	0.816500
O91	O9	0.639300	0.715900	0.823500
O101	O10	0.824000	0.854900	0.978500
O111	O11	0.613300	0.872800	0.889600
O121	O12	0.901000	0.842900	0.876300
O131	O13	0.473600	0.662200	0.636500
O141	O14	0.770100	0.648900	0.637700
O151	O15	0.597100	0.650800	0.531200
O161	O16	0.695500	0.804200	0.701800
O171	O17	0.149700	0.476300	0.775600
O181	O18	0.138100	0.355600	0.732020
O191	O19	0.915400	0.427300	0.787800
O201	O20	0.965800	0.404200	0.714000
O211	O21	0.020600	0.195700	0.748900
O221	O22	0.911700	0.247600	0.750100
O231	O23	0.728500	0.788700	0.324700
O241	O24	0.649200	0.872700	0.340300
C11	C1	0.395800	0.334400	0.774800
C21	C2	0.461100	0.415200	0.799300
C31	C3	0.544500	0.421500	0.819900
H11	H1	0.560100	0.375200	0.815900
C41	C4	0.605300	0.494800	0.846100
H21	H2	0.660000	0.496600	0.860300
C51	C5	0.585900	0.567100	0.851900
C61	C6	0.500800	0.559300	0.828200
H31	H3	0.486500	0.605400	0.828700
C71	C7	0.439800	0.485500	0.804800
H41	H4	0.383200	0.482300	0.792400
C81	C8	0.646300	0.643000	0.883900
C91	C9	0.682300	0.644100	0.928700
H51	H5	0.667300	0.596500	0.938000
C101	C10	0.740700	0.713400	0.961500
C111	C11	0.762100	0.784300	0.947100
C121	C12	0.729400	0.784700	0.902100
C131	C13	0.673800	0.715600	0.870700
C141	C14	0.776300	0.709100	0.011300
C151	C15	0.734800	0.720600	0.053300
H61	H6	0.683400	0.735300	0.053100
C161	C16	0.768300	0.710400	0.095600
H71	H7	0.737800	0.718400	0.123400
C171	C17	0.839800	0.690500	0.100300
C181	C18	0.886800	0.685900	0.061500
H81	H8	0.941900	0.678300	0.064700
C191	C19	0.854700	0.692400	0.015200
H91	H9	0.886600	0.685400	0.987900
C201	C20	0.872300	0.674600	0.145100
C211	C21	0.696200	0.699500	0.785400
H101	H10	0.668600	0.697200	0.753800
H111	H11	0.704700	0.649000	0.783800
H121	H12	0.753100	0.741400	0.793300
C221	C22	0.794600	0.901800	0.018400
H131	H13	0.825100	0.957700	0.021900
H141	H14	0.807500	0.889200	0.048500
H151	H15	0.731300	0.890600	0.012100
C231	C23	0.758300	0.858800	0.884000
C241	C24	0.847500	0.886500	0.871700
C251	C25	0.873600	0.953500	0.852700
C261	C26	0.812900	0.990500	0.847000
H161	H16	0.831600	0.036100	0.835600
C271	C27	0.724500	0.964800	0.857100
C281	C28	0.701500	0.900700	0.877400
C291	C29	0.983200	0.885700	0.910800
H171	H17	0.014900	0.849200	0.912700
H181	H18	0.968100	0.907400	0.943200
H191	H19	0.020300	0.928600	0.899000
C301	C30	0.535000	0.828900	0.849200
H201	H20	0.483100	0.804300	0.863700
H211	H21	0.549400	0.788200	0.824800
H221	H22	0.522900	0.866300	0.833500
C311	C31	0.963500	0.981800	0.834300
C321	C32	0.994500	0.929400	0.799900
H231	H23	0.963900	0.874500	0.790900
C331	C33	0.072000	0.959800	0.778900
H241	H24	0.094000	0.924900	0.756400
C341	C34	0.116800	0.042500	0.791300
C351	C35	0.084600	0.094300	0.827400
H251	H25	0.115000	0.149300	0.836900
C361	C36	0.009200	0.063900	0.848400
H261	H26	0.988400	0.098200	0.872100
C371	C37	0.199600	0.075300	0.769600
C381	C38	0.661500	0.005900	0.843500
C391	C39	0.666400	0.021500	0.797900
H271	H27	0.709900	0.009600	0.778500
C401	C40	0.609400	0.053800	0.780200
H281	H28	0.613300	0.063000	0.749000
C411	C41	0.544700	0.073100	0.809500
C421	C42	0.542300	0.061200	0.855500
H291	H29	0.501800	0.076100	0.876100
C431	C43	0.602300	0.025400	0.872200
H301	H30	0.599600	0.015900	0.903400
C441	C44	0.476800	0.104600	0.789700
C451	C45	0.174200	0.432100	0.744800
C461	C46	0.256200	0.467200	0.718700
C471	C47	0.286800	0.419100	0.685900
H311	H31	0.254700	0.364500	0.676000
C481	C48	0.365500	0.446800	0.665500
H321	H32	0.384700	0.411600	0.641500
C491	C49	0.415800	0.529200	0.681800
C501	C50	0.379300	0.580000	0.713700
H331	H33	0.408000	0.635300	0.722000
C511	C51	0.301800	0.550000	0.733100
H341	H34	0.279500	0.584500	0.755800
C521	C52	0.504900	0.558600	0.666500
C531	C53	0.568800	0.524900	0.676600
H351	H35	0.551100	0.480200	0.688800
C541	C54	0.659600	0.555800	0.669000
C551	C55	0.682600	0.617700	0.647600
C561	C56	0.621600	0.654500	0.636300
C571	C57	0.533500	0.623400	0.645500
C581	C58	0.406800	0.618300	0.593400
H361	H36	0.370600	0.650400	0.589000
H371	H37	0.369500	0.568900	0.598500
H381	H38	0.436400	0.606800	0.564200
C591	C59	0.833400	0.698900	0.678800
H391	H39	0.892300	0.711400	0.668300
H401	H40	0.831000	0.671500	0.704100
H411	H41	0.820000	0.747600	0.691800
C601	C60	0.721800	0.518500	0.685100
C611	C61	0.716500	0.503200	0.731900
H421	H42	0.670800	0.511400	0.750500
C621	C62	0.781100	0.475000	0.750500
H431	H43	0.779100	0.467500	0.782200
C631	C63	0.846000	0.458900	0.722900
C641	C64	0.851300	0.470400	0.674700
H441	H44	0.894900	0.458800	0.655300
C651	C65	0.786000	0.501100	0.657000
H451	H45	0.787800	0.509100	0.625400
C661	C66	0.912900	0.428000	0.743200
C671	C67	0.649700	0.726400	0.617500
C681	C68	0.686500	0.801600	0.651500
C691	C69	0.711300	0.872500	0.637400
C701	C70	0.697000	0.865100	0.587400
H461	H46	0.711300	0.912000	0.577400
C711	C71	0.663000	0.793200	0.551400
C721	C72	0.640000	0.722900	0.567800
C731	C73	0.624400	0.822600	0.728500
H471	H47	0.636900	0.827200	0.763200
H481	H48	0.568800	0.780500	0.715300
H491	H49	0.620100	0.872500	0.725000
C741	C74	0.636800	0.589500	0.525300
H501	H50	0.626800	0.558900	0.491000
H511	H51	0.610600	0.554900	0.545500
H521	H52	0.700000	0.613400	0.535500
C751	C75	0.761300	0.953500	0.671000
C761	C76	0.835000	0.965600	0.704500
H531	H53	0.844000	0.921600	0.712100
C771	C77	0.893800	0.040400	0.726000
H541	H54	0.947100	0.046300	0.743800
C781	C78	0.874500	0.108300	0.721500
C791	C79	0.795800	0.097600	0.692400
H551	H55	0.780000	0.142000	0.690400
C801	C80	0.741300	0.020600	0.666500
H561	H56	0.690900	0.014100	0.645900
C811	C81	0.939900	0.189100	0.741000
C821	C82	0.658600	0.793700	0.498700
C831	C83	0.705400	0.752700	0.465000
H571	H57	0.730500	0.717800	0.474300
C841	C84	0.713500	0.764400	0.419300
H581	H58	0.746100	0.738500	0.398000
C851	C85	0.674600	0.814200	0.402900
C861	C86	0.625900	0.851700	0.435300
H591	H59	0.597100	0.883400	0.424900
C871	C87	0.619500	0.842900	0.482600
H601	H60	0.588600	0.870400	0.504000
C881	C88	0.685600	0.826900	0.352700
Sm11	Sm1	0.830180	0.766440	0.268230
Cd41	Cd4	0.641250	0.853290	0.258650
Cd51	Cd5	0.977310	0.633900	0.217430
O251	O25	0.685100	0.673100	0.234200
O261	O26	0.576300	0.724300	0.234800
O271	O27	0.164400	0.298100	0.815400
O281	O28	0.066800	0.354000	0.853300
O291	O29	0.757000	0.967200	0.252900
O301	O30	0.776100	0.844600	0.224300
O311	O31	0.525500	0.898700	0.257000
O321	O32	0.574100	0.870300	0.183500
O331	O33	0.360700	0.284100	0.176500
O341	O34	0.176000	0.145100	0.021500
O351	O35	0.386700	0.127200	0.110400
O361	O36	0.099000	0.157100	0.123700
O371	O37	0.526400	0.337800	0.363500
O381	O38	0.229900	0.351100	0.362300
O391	O39	0.402900	0.349200	0.468800
O401	O40	0.304500	0.195800	0.298200
O411	O41	0.850300	0.523700	0.224400
O421	O42	0.861900	0.644400	0.267980
O431	O43	0.084600	0.572700	0.212200
O441	O44	0.034200	0.595800	0.286000
O451	O45	0.979400	0.804300	0.251100
O461	O46	0.088300	0.752400	0.249900
O471	O47	0.271500	0.211300	0.675300
O481	O48	0.350800	0.127300	0.659700
C891	C89	0.604200	0.665600	0.225200
C901	C90	0.538900	0.584800	0.200700
C911	C91	0.455500	0.578500	0.180100
H611	H61	0.439900	0.624800	0.184100
C921	C92	0.394700	0.505200	0.153900
H621	H62	0.340000	0.503400	0.139700
C931	C93	0.414100	0.432900	0.148100
C941	C94	0.499200	0.440700	0.171800
H631	H63	0.513500	0.394600	0.171300
C951	C95	0.560200	0.514500	0.195200
H641	H64	0.616800	0.517700	0.207600
C961	C96	0.353700	0.357000	0.116100
C971	C97	0.317700	0.355900	0.071300
H651	H65	0.332700	0.403500	0.062000
C981	C98	0.259300	0.286600	0.038500
C991	C99	0.237900	0.215700	0.052900
C1001	C100	0.270600	0.215300	0.097900
C1011	C101	0.326200	0.284400	0.129300
C1021	C102	0.223700	0.290900	0.988700
C1031	C103	0.265200	0.279400	0.946700
H661	H66	0.316600	0.264700	0.946900
C1041	C104	0.231700	0.289600	0.904400
H671	H67	0.262200	0.281600	0.876600
C1051	C105	0.160200	0.309500	0.899700
C1061	C106	0.113200	0.314100	0.938500
H681	H68	0.058100	0.321700	0.935300
C1071	C107	0.145300	0.307600	0.984800
H691	H69	0.113400	0.314600	0.012100
C1081	C108	0.127700	0.325400	0.854900
C1091	C109	0.303800	0.300500	0.214600
H701	H70	0.331400	0.302800	0.246200
H711	H71	0.295300	0.351000	0.216200
H721	H72	0.246900	0.258600	0.206700
C1101	C110	0.205400	0.098200	0.981600
H731	H73	0.174900	0.042300	0.978100
H741	H74	0.192500	0.110800	0.951500
H751	H75	0.268700	0.109400	0.987900
C1111	C111	0.241700	0.141200	0.116000
C1121	C112	0.152500	0.113500	0.128300
C1131	C113	0.126400	0.046500	0.147300
C1141	C114	0.187100	0.009500	0.153000
H761	H76	0.168400	0.963900	0.164400
C1151	C115	0.275500	0.035200	0.142900
C1161	C116	0.298500	0.099300	0.122600
C1171	C117	0.016800	0.114300	0.089200
H771	H77	0.985100	0.150800	0.087300
H781	H78	0.031900	0.092600	0.056800
H791	H79	0.979700	0.071400	0.101000
C1181	C118	0.465000	0.171100	0.150800
H801	H80	0.516900	0.195700	0.136300
H811	H81	0.450600	0.211800	0.175200
H821	H82	0.477100	0.133700	0.166500
C1191	C119	0.036500	0.018200	0.165700
C1201	C120	0.005500	0.070600	0.200100
H831	H83	0.036100	0.125500	0.209100
C1211	C121	0.928000	0.040200	0.221100
H841	H84	0.906000	0.075100	0.243600
C1221	C122	0.883200	0.957500	0.208700
C1231	C123	0.915400	0.905700	0.172600
H851	H85	0.885000	0.850700	0.163100
C1241	C124	0.990800	0.936100	0.151600
H861	H86	0.011600	0.901800	0.127900
C1251	C125	0.800400	0.924700	0.230400
C1261	C126	0.338500	0.994100	0.156500
C1271	C127	0.333600	0.978500	0.202100
H871	H87	0.290100	0.990400	0.221500
C1281	C128	0.390600	0.946200	0.219800
H881	H88	0.386700	0.937000	0.251000
C1291	C129	0.455300	0.926900	0.190500
C1301	C130	0.457700	0.938800	0.144500
H891	H89	0.498200	0.923900	0.123900
C1311	C131	0.397700	0.974600	0.127800
H901	H90	0.400400	0.984100	0.096600
C1321	C132	0.523200	0.895400	0.210300
C1331	C133	0.825800	0.567900	0.255200
C1341	C134	0.743800	0.532800	0.281300
C1351	C135	0.713200	0.580900	0.314100
H911	H91	0.745300	0.635500	0.324000
C1361	C136	0.634500	0.553200	0.334500
H921	H92	0.615300	0.588400	0.358500
C1371	C137	0.584200	0.470800	0.318200
C1381	C138	0.620700	0.420000	0.286300
H931	H93	0.592000	0.364700	0.278000
C1391	C139	0.698200	0.450000	0.266900
H941	H94	0.720500	0.415500	0.244200
C1401	C140	0.495100	0.441400	0.333500
C1411	C141	0.431200	0.475100	0.323400
H951	H95	0.448900	0.519800	0.311200
C1421	C142	0.340400	0.444200	0.331000
C1431	C143	0.317400	0.382300	0.352400
C1441	C144	0.378400	0.345500	0.363700
C1451	C145	0.466500	0.376600	0.354500
C1461	C146	0.593200	0.381700	0.406600
H961	H96	0.629400	0.349600	0.411000
H971	H97	0.630500	0.431100	0.401500
H981	H98	0.563600	0.393200	0.435800
C1471	C147	0.166600	0.301100	0.321200
H991	H99	0.107700	0.288600	0.331700
H1001	H100	0.169000	0.328500	0.295900
H1011	H101	0.180000	0.252400	0.308200
C1481	C148	0.278200	0.481500	0.314900
C1491	C149	0.283500	0.496800	0.268100
H1021	H102	0.329200	0.488600	0.249500
C1501	C150	0.218900	0.525000	0.249500
H1031	H103	0.220900	0.532500	0.217800
C1511	C151	0.154000	0.541100	0.277100
C1521	C152	0.148700	0.529600	0.325300
H1041	H104	0.105100	0.541200	0.344700
C1531	C153	0.214000	0.498900	0.343000
H1051	H105	0.212200	0.490900	0.374600
C1541	C154	0.087100	0.572000	0.256800
C1551	C155	0.350300	0.273600	0.382500
C1561	C156	0.313500	0.198400	0.348500
C1571	C157	0.288700	0.127500	0.362600
C1581	C158	0.303000	0.134900	0.412600
H1061	H106	0.288700	0.088000	0.422600
C1591	C159	0.337000	0.206800	0.448600
C1601	C160	0.360000	0.277100	0.432200
C1611	C161	0.375600	0.177400	0.271500
H1071	H107	0.363100	0.172800	0.236800
H1081	H108	0.431200	0.219500	0.284700
H1091	H109	0.379900	0.127500	0.275000
C1621	C162	0.363200	0.410500	0.474700
H1101	H110	0.373200	0.441100	0.509000
H1111	H111	0.389400	0.445100	0.454500
H1121	H112	0.300000	0.386600	0.464500
C1631	C163	0.238700	0.046500	0.329000
C1641	C164	0.165000	0.034400	0.295500
H1131	H113	0.156000	0.078400	0.287900
C1651	C165	0.106200	0.959600	0.274000
H1141	H114	0.052900	0.953700	0.256200
C1661	C166	0.125500	0.891700	0.278500
C1671	C167	0.204200	0.902400	0.307600
H1151	H115	0.220000	0.858000	0.309600
C1681	C168	0.258700	0.979400	0.333500
H1161	H116	0.309100	0.985900	0.354100
C1691	C169	0.060100	0.810900	0.259000
C1701	C170	0.341400	0.206300	0.501300
C1711	C171	0.294600	0.247300	0.535000
H1171	H117	0.269500	0.282200	0.525700
C1721	C172	0.286500	0.235600	0.580700
H1181	H118	0.253900	0.261500	0.602000
C1731	C173	0.325400	0.185800	0.597100
C1741	C174	0.374100	0.148300	0.564700
H1191	H119	0.402900	0.116600	0.575100
C1751	C175	0.380500	0.157100	0.517400
H1201	H120	0.411400	0.129600	0.496000
C1761	C176	0.314400	0.173100	0.647300
