data_WUYYAS_clean_PM
_symmetry_space_group_name_H-M	'P1'
_cell_length_a	15.890000
_cell_length_b	18.596000
_cell_length_c	28.500000
_cell_angle_alpha	101.979000
_cell_angle_beta	94.414000
_cell_angle_gamma	108.931000
_symmetry_Int_Tables_number 1

loop_
_symmetry_equiv_pos_as_xyz
'x,y,z'

loop_
_atom_site_label
_atom_site_type_symbol
_atom_site_fract_x
_atom_site_fract_y
_atom_site_fract_z
Cd11	Cd1	0.386830	0.145320	0.239160
Cd21	Cd2	0.040150	0.351040	0.269620
C11	C1	0.898600	0.096300	0.213800
C21	C2	0.816100	0.084400	0.187700
H11	H1	0.798300	0.127100	0.186800
C31	C3	0.759100	0.008900	0.162600
H21	H2	0.705700	0.002300	0.143500
C41	C4	0.781600	0.944000	0.166000
C51	C5	0.858200	0.956500	0.196900
H31	H3	0.870800	0.913400	0.202700
C61	C6	0.918000	0.031300	0.219900
H41	H4	0.970900	0.037600	0.239300
C71	C7	0.729100	0.865800	0.133100
C81	C8	0.710900	0.859200	0.083800
H51	H5	0.726400	0.905200	0.073300
C91	C9	0.672300	0.790600	0.049900
C101	C10	0.648200	0.717700	0.064700
C111	C11	0.665200	0.720800	0.114300
C121	C12	0.705800	0.793700	0.147000
C131	C13	0.660800	0.791000	0.996800
C141	C14	0.619200	0.838600	0.982600
H61	H6	0.590500	0.863900	0.004000
C151	C15	0.620600	0.848200	0.935600
H71	H7	0.592500	0.880600	0.925800
C161	C16	0.661200	0.812200	0.904100
C171	C17	0.704000	0.765000	0.917900
H81	H8	0.732600	0.740700	0.895900
C181	C18	0.705300	0.752200	0.966200
H91	H9	0.733900	0.720400	0.976200
C191	C19	0.667000	0.820000	0.853000
C201	C20	0.649300	0.589800	0.023900
H101	H10	0.657100	0.576400	0.990500
H111	H11	0.611900	0.543800	0.032400
H121	H12	0.707000	0.610200	0.044300
C211	C21	0.659300	0.812200	0.223000
H131	H13	0.674400	0.812100	0.256300
H141	H14	0.601200	0.773100	0.209700
H151	H15	0.657900	0.862900	0.221300
C221	C22	0.422400	0.617700	0.093100
H161	H16	0.380500	0.644800	0.091800
H171	H17	0.391200	0.565300	0.095700
H181	H18	0.449300	0.615600	0.064100
C231	C23	0.637200	0.648400	0.133600
C241	C24	0.550600	0.618900	0.143600
C251	C25	0.524100	0.555300	0.164100
C261	C26	0.589500	0.519100	0.173500
H191	H19	0.572500	0.474500	0.185500
C271	C27	0.676800	0.549700	0.164800
C281	C28	0.700700	0.614100	0.145200
C291	C29	0.432800	0.523300	0.177900
C301	C30	0.385200	0.443000	0.164500
H201	H20	0.406300	0.410300	0.143100
C311	C31	0.307000	0.410800	0.182600
H211	H21	0.276500	0.356900	0.173500
C321	C32	0.399300	0.571900	0.208400
H221	H22	0.428500	0.625900	0.215000
C331	C33	0.324800	0.543000	0.229100
H231	H23	0.306600	0.576000	0.252000
C341	C34	0.274100	0.458300	0.214100
C351	C35	0.200100	0.428000	0.238600
C361	C36	0.740900	0.511200	0.180800
C371	C37	0.742100	0.493800	0.224100
H241	H24	0.700200	0.502900	0.243400
C381	C38	0.800400	0.464200	0.240600
H251	H25	0.798700	0.454100	0.271200
C391	C39	0.865600	0.447500	0.212900
C401	C40	0.861100	0.462700	0.167800
H261	H26	0.900600	0.450900	0.147600
C411	C41	0.802200	0.493900	0.151400
H271	H27	0.802200	0.503800	0.120700
C421	C42	0.934500	0.411000	0.229700
C431	C43	0.227900	0.066800	0.268400
C441	C44	0.112600	0.086100	0.320600
H281	H28	0.141000	0.140300	0.328800
C451	C45	0.039400	0.054800	0.339200
H291	H29	0.018500	0.087600	0.360600
C461	C46	0.992200	0.972500	0.327400
C471	C47	0.027800	0.926400	0.298300
H301	H30	0.000000	0.872200	0.291700
C481	C48	0.101700	0.955900	0.278800
H311	H31	0.123500	0.922300	0.258500
C491	C49	0.903700	0.942300	0.343900
C501	C50	0.841300	0.978300	0.336100
H321	H32	0.859200	0.021300	0.322700
C511	C51	0.751500	0.954000	0.347400
C521	C52	0.726900	0.886500	0.366900
C531	C53	0.790200	0.850600	0.374900
C541	C54	0.872200	0.876300	0.364000
C551	C55	0.013400	0.879800	0.407200
H331	H33	0.064000	0.868300	0.395800
H341	H34	0.004400	0.864800	0.437200
H351	H35	0.024700	0.935000	0.412300
C561	C56	0.693000	0.992700	0.332600
C571	C57	0.689500	0.009500	0.286200
H361	H36	0.727100	0.995600	0.265500
C581	C58	0.633600	0.044900	0.270800
H371	H37	0.636300	0.056200	0.240600
C591	C59	0.571500	0.065000	0.299100
C601	C60	0.575300	0.049600	0.348400
H381	H38	0.539200	0.064700	0.369800
C611	C61	0.632300	0.013000	0.362000
H391	H39	0.630900	0.001000	0.392100
C621	C62	0.741700	0.689500	0.280700
H401	H40	0.714400	0.680100	0.247800
H411	H41	0.755000	0.644300	0.285100
H421	H42	0.796400	0.734200	0.287800
C631	C63	0.804300	0.899900	0.495000
H431	H43	0.837700	0.951900	0.492700
H441	H44	0.805700	0.898700	0.528600
H451	H45	0.743100	0.884900	0.479900
C641	C64	0.757500	0.775300	0.394400
C651	C65	0.705200	0.705900	0.362700
C661	C66	0.682200	0.634800	0.375600
C671	C67	0.709700	0.636600	0.424100
H461	H46	0.694000	0.590600	0.434700
C681	C68	0.760700	0.708100	0.456100
C691	C69	0.790400	0.778400	0.439500
C701	C70	0.790400	0.705400	0.506700
C711	C71	0.749900	0.734600	0.543800
H471	H47	0.709400	0.759300	0.537500
C721	C72	0.769700	0.727000	0.590400
H481	H48	0.739500	0.744600	0.614400
C731	C73	0.829200	0.695800	0.602000
C741	C74	0.872400	0.674600	0.567600
H491	H49	0.921800	0.661000	0.576300
C751	C75	0.848800	0.670800	0.517000
H501	H50	0.873000	0.645600	0.492800
C761	C76	0.854600	0.691300	0.655400
C771	C77	0.620900	0.558200	0.343800
C781	C78	0.542300	0.550600	0.316800
H511	H51	0.531100	0.595500	0.313500
C791	C79	0.477800	0.476900	0.293700
H521	H52	0.422400	0.473200	0.278100
C801	C80	0.496900	0.409900	0.294300
C811	C81	0.582700	0.417400	0.317300
H531	H53	0.598700	0.373100	0.314900
C821	C82	0.641300	0.487700	0.342500
H541	H54	0.695500	0.490900	0.359300
C831	C83	0.427400	0.324800	0.270300
C841	C84	0.510100	0.098000	0.281800
O11	O1	0.937600	0.410300	0.274800
O21	O2	0.974400	0.386100	0.200500
O31	O3	0.165300	0.467400	0.266300
O41	O4	0.161700	0.348400	0.228100
O51	O5	0.256600	0.149300	0.271800
O61	O6	0.270600	0.032500	0.246300
O71	O7	0.703700	0.789500	0.824700
O81	O8	0.623200	0.869000	0.840400
O91	O9	0.345900	0.321800	0.264700
O101	O10	0.450200	0.272000	0.262600
O111	O11	0.500400	0.098400	0.238800
O121	O12	0.458300	0.123400	0.308200
O131	O13	0.914300	0.661700	0.658800
O141	O14	0.811300	0.713600	0.684200
O151	O15	0.490700	0.658200	0.134300
O161	O16	0.785700	0.645300	0.133400
O171	O17	0.606600	0.649000	0.030800
O181	O18	0.726300	0.794900	0.195500
O191	O19	0.680700	0.704600	0.313000
O201	O20	0.843000	0.847600	0.471700
O211	O21	0.642500	0.859800	0.378900
O221	O22	0.932100	0.835800	0.370800
O231	O23	0.929400	0.235700	0.239100
C851	C85	0.957300	0.178900	0.235000
O241	O24	0.045200	0.192000	0.246200
C861	C86	0.566900	0.820200	0.340200
H551	H55	0.511700	0.813400	0.353400
H561	H56	0.568800	0.769900	0.324700
H571	H57	0.569800	0.851100	0.316900
C871	C87	0.853800	0.691700	0.176200
H581	H58	0.911300	0.712100	0.166100
H591	H59	0.857400	0.659000	0.197700
H601	H60	0.837100	0.734400	0.192700
C881	C88	0.147500	0.039800	0.289200
Pr11	Pr1	0.805350	0.771100	0.768760
Cd31	Cd3	0.613170	0.854680	0.760840
Cd41	Cd4	0.959850	0.648960	0.730380
C891	C89	0.101400	0.903700	0.786200
C901	C90	0.183900	0.915600	0.812300
H611	H61	0.201700	0.872900	0.813200
C911	C91	0.240900	0.991100	0.837400
H621	H62	0.294300	0.997700	0.856500
C921	C92	0.218400	0.056000	0.834000
C931	C93	0.141800	0.043500	0.803100
H631	H63	0.129200	0.086600	0.797300
C941	C94	0.082000	0.968700	0.780100
H641	H64	0.029100	0.962400	0.760700
C951	C95	0.270900	0.134200	0.866900
C961	C96	0.289100	0.140800	0.916200
H651	H65	0.273600	0.094800	0.926700
C971	C97	0.327700	0.209400	0.950100
C981	C98	0.351800	0.282300	0.935300
C991	C99	0.334800	0.279200	0.885700
C1001	C100	0.294200	0.206300	0.853000
C1011	C101	0.339200	0.209000	0.003200
C1021	C102	0.380800	0.161400	0.017400
H661	H66	0.409500	0.136100	0.996000
C1031	C103	0.379400	0.151800	0.064400
H671	H67	0.407500	0.119400	0.074200
C1041	C104	0.338800	0.187800	0.095900
C1051	C105	0.296000	0.235000	0.082100
H681	H68	0.267400	0.259300	0.104100
C1061	C106	0.294700	0.247800	0.033800
H691	H69	0.266100	0.279600	0.023800
C1071	C107	0.333000	0.180000	0.147000
C1081	C108	0.350700	0.410200	0.976100
H701	H70	0.342900	0.423600	0.009500
H711	H71	0.388100	0.456200	0.967600
H721	H72	0.293000	0.389800	0.955700
C1091	C109	0.340700	0.187800	0.777000
H731	H73	0.325600	0.187900	0.743700
H741	H74	0.398800	0.226900	0.790300
H751	H75	0.342100	0.137100	0.778700
C1101	C110	0.577600	0.382300	0.906900
H761	H76	0.619500	0.355200	0.908200
H771	H77	0.608800	0.434700	0.904300
H781	H78	0.550700	0.384400	0.935900
C1111	C111	0.362800	0.351600	0.866400
C1121	C112	0.449400	0.381100	0.856400
C1131	C113	0.475900	0.444700	0.835900
C1141	C114	0.410500	0.480900	0.826500
H791	H79	0.427500	0.525500	0.814500
C1151	C115	0.323200	0.450300	0.835200
C1161	C116	0.299300	0.385900	0.854800
C1171	C117	0.567200	0.476700	0.822100
C1181	C118	0.614800	0.557000	0.835500
H801	H80	0.593700	0.589700	0.856900
C1191	C119	0.693000	0.589200	0.817400
H811	H81	0.723500	0.643100	0.826500
C1201	C120	0.600700	0.428100	0.791600
H821	H82	0.571500	0.374100	0.785000
C1211	C121	0.675200	0.457000	0.770900
H831	H83	0.693400	0.424000	0.748000
C1221	C122	0.725900	0.541700	0.785900
C1231	C123	0.799900	0.572000	0.761400
C1241	C124	0.259100	0.488800	0.819200
C1251	C125	0.257900	0.506200	0.775900
H841	H84	0.299800	0.497100	0.756600
C1261	C126	0.199600	0.535800	0.759400
H851	H85	0.201300	0.545900	0.728800
C1271	C127	0.134400	0.552500	0.787100
C1281	C128	0.138900	0.537300	0.832200
H861	H86	0.099400	0.549100	0.852400
C1291	C129	0.197800	0.506100	0.848600
H871	H87	0.197800	0.496200	0.879300
C1301	C130	0.065500	0.589000	0.770300
C1311	C131	0.772100	0.933200	0.731600
C1321	C132	0.887400	0.913900	0.679400
H881	H88	0.859000	0.859700	0.671200
C1331	C133	0.960600	0.945200	0.660800
H891	H89	0.981500	0.912400	0.639400
C1341	C134	0.007800	0.027500	0.672600
C1351	C135	0.972200	0.073600	0.701700
H901	H90	0.000000	0.127800	0.708300
C1361	C136	0.898300	0.044100	0.721200
H911	H91	0.876500	0.077700	0.741500
C1371	C137	0.096300	0.057700	0.656100
C1381	C138	0.158700	0.021700	0.663900
H921	H92	0.140800	0.978700	0.677300
C1391	C139	0.248500	0.046000	0.652600
C1401	C140	0.273100	0.113500	0.633100
C1411	C141	0.209800	0.149400	0.625100
C1421	C142	0.127800	0.123700	0.636000
C1431	C143	0.986600	0.120200	0.592800
H931	H93	0.936000	0.131700	0.604200
H941	H94	0.995600	0.135200	0.562800
H951	H95	0.975300	0.065000	0.587700
C1441	C144	0.307000	0.007300	0.667400
C1451	C145	0.310500	0.990500	0.713800
H961	H96	0.272900	0.004400	0.734500
C1461	C146	0.366400	0.955100	0.729200
H971	H97	0.363700	0.943800	0.759400
C1471	C147	0.428500	0.935000	0.700900
C1481	C148	0.424700	0.950400	0.651600
H981	H98	0.460800	0.935300	0.630200
C1491	C149	0.367700	0.987000	0.638000
H991	H99	0.369100	0.999000	0.607900
C1501	C150	0.258300	0.310500	0.719300
H1001	H100	0.285600	0.319900	0.752200
H1011	H101	0.245000	0.355700	0.714900
H1021	H102	0.203600	0.265800	0.712200
C1511	C151	0.195700	0.100100	0.505000
H1031	H103	0.162300	0.048100	0.507300
H1041	H104	0.194300	0.101300	0.471400
H1051	H105	0.256900	0.115100	0.520100
C1521	C152	0.242500	0.224700	0.605600
C1531	C153	0.294800	0.294100	0.637300
C1541	C154	0.317800	0.365200	0.624400
C1551	C155	0.290300	0.363400	0.575900
H1061	H106	0.306000	0.409400	0.565300
C1561	C156	0.239300	0.291900	0.543900
C1571	C157	0.209600	0.221600	0.560500
C1581	C158	0.209600	0.294600	0.493300
C1591	C159	0.250100	0.265400	0.456200
H1071	H107	0.290600	0.240700	0.462500
C1601	C160	0.230300	0.273000	0.409600
H1081	H108	0.260500	0.255400	0.385600
C1611	C161	0.170800	0.304200	0.398000
C1621	C162	0.127600	0.325400	0.432400
H1091	H109	0.078200	0.339000	0.423700
C1631	C163	0.151200	0.329200	0.483000
H1101	H110	0.127000	0.354400	0.507200
C1641	C164	0.145400	0.308700	0.344600
C1651	C165	0.379100	0.441800	0.656200
C1661	C166	0.457700	0.449400	0.683200
H1111	H111	0.468900	0.404500	0.686500
C1671	C167	0.522200	0.523100	0.706300
H1121	H112	0.577600	0.526800	0.721900
C1681	C168	0.503100	0.590100	0.705700
C1691	C169	0.417300	0.582600	0.682700
H1131	H113	0.401300	0.626900	0.685100
C1701	C170	0.358700	0.512300	0.657500
H1141	H114	0.304500	0.509100	0.640700
C1711	C171	0.572600	0.675200	0.729700
C1721	C172	0.489900	0.902000	0.718200
O251	O25	0.062400	0.589700	0.725200
O261	O26	0.025600	0.613900	0.799500
O271	O27	0.834700	0.532600	0.733700
O281	O28	0.838300	0.651600	0.771900
O291	O29	0.743400	0.850700	0.728200
O301	O30	0.729400	0.967500	0.753700
O311	O31	0.296300	0.210500	0.175300
O321	O32	0.376800	0.131000	0.159600
O331	O33	0.654100	0.678200	0.735300
O341	O34	0.549800	0.728000	0.737400
O351	O35	0.499600	0.901600	0.761200
O361	O36	0.541700	0.876600	0.691800
O371	O37	0.085700	0.338300	0.341200
O381	O38	0.188700	0.286400	0.315800
O391	O39	0.509300	0.341800	0.865700
O401	O40	0.214300	0.354700	0.866600
O411	O41	0.393400	0.351000	0.969200
O421	O42	0.273700	0.205100	0.804500
O431	O43	0.319300	0.295400	0.687000
O441	O44	0.157000	0.152400	0.528300
O451	O45	0.357500	0.140200	0.621100
O461	O46	0.067900	0.164200	0.629200
O471	O47	0.070600	0.764300	0.760900
C1731	C173	0.042700	0.821100	0.765000
O481	O48	0.954800	0.808000	0.753800
C1741	C174	0.433100	0.179800	0.659800
H1151	H115	0.488300	0.186600	0.646600
H1161	H116	0.431200	0.230100	0.675300
H1171	H117	0.430200	0.148900	0.683100
C1751	C175	0.146200	0.308300	0.823800
H1181	H118	0.088700	0.287900	0.833900
H1191	H119	0.142600	0.341000	0.802300
H1201	H120	0.162900	0.265600	0.807300
C1761	C176	0.852500	0.960200	0.710800
