data_WUZDOL_clean_PM
_symmetry_space_group_name_H-M	'P1'
_cell_length_a	17.028000
_cell_length_b	17.028000
_cell_length_c	23.143900
_cell_angle_alpha	90.000000
_cell_angle_beta	90.000000
_cell_angle_gamma	90.000000
_symmetry_Int_Tables_number 1

loop_
_symmetry_equiv_pos_as_xyz
'x,y,z'

loop_
_atom_site_label
_atom_site_type_symbol
_atom_site_fract_x
_atom_site_fract_y
_atom_site_fract_z
H11	H1	0.263100	0.703900	0.975700
H21	H2	0.369200	0.796100	0.027500
C11	C1	0.270810	0.820330	0.111130
H31	H3	0.257500	0.822000	0.151900
H41	H4	0.300800	0.867200	0.102100
C21	C2	0.194890	0.819680	0.075100
H51	H5	0.192300	0.867100	0.051900
H61	H6	0.149900	0.819200	0.100800
H71	H7	0.763100	0.203900	0.475700
H81	H8	0.869200	0.296100	0.527500
C31	C3	0.770810	0.320330	0.611130
H91	H9	0.757500	0.322000	0.651900
H101	H10	0.800800	0.367200	0.602100
C41	C4	0.694890	0.319680	0.575100
H111	H11	0.692300	0.367100	0.551900
H121	H12	0.649900	0.319200	0.600800
H131	H13	0.236900	0.296100	0.475700
H141	H14	0.130800	0.203900	0.527500
C51	C5	0.229190	0.179670	0.611130
H151	H15	0.242500	0.178000	0.651900
H161	H16	0.199200	0.132800	0.602100
C61	C6	0.305110	0.180320	0.575100
H171	H17	0.307700	0.132900	0.551900
H181	H18	0.350100	0.180800	0.600800
H191	H19	0.736900	0.796100	0.975700
H201	H20	0.630800	0.703900	0.027500
C71	C7	0.729190	0.679670	0.111130
H211	H21	0.742500	0.678000	0.151900
H221	H22	0.699200	0.632800	0.102100
C81	C8	0.805110	0.680320	0.075100
H231	H23	0.807700	0.632900	0.051900
H241	H24	0.850100	0.680800	0.100800
H251	H25	0.546100	0.013100	0.225700
H261	H26	0.453900	0.119200	0.277500
C91	C9	0.429670	0.020810	0.361130
H271	H27	0.428000	0.007500	0.401900
H281	H28	0.382800	0.050800	0.352100
C101	C10	0.430320	0.944890	0.325100
H291	H29	0.382900	0.942300	0.301900
H301	H30	0.430800	0.899900	0.350800
H311	H31	0.046100	0.513100	0.725700
H321	H32	0.953900	0.619200	0.777500
C111	C11	0.929670	0.520810	0.861130
H331	H33	0.928000	0.507500	0.901900
H341	H34	0.882800	0.550800	0.852100
C121	C12	0.930320	0.444890	0.825100
H351	H35	0.882900	0.442300	0.801900
H361	H36	0.930800	0.399900	0.850800
H371	H37	0.953900	0.986900	0.725700
H381	H38	0.046100	0.880800	0.777500
C131	C13	0.070330	0.979190	0.861130
H391	H39	0.072000	0.992500	0.901900
H401	H40	0.117200	0.949200	0.852100
C141	C14	0.069680	0.055110	0.825100
H411	H41	0.117100	0.057700	0.801900
H421	H42	0.069200	0.100100	0.850800
H431	H43	0.453900	0.486900	0.225700
H441	H44	0.546100	0.380800	0.277500
C151	C15	0.570330	0.479190	0.361130
H451	H45	0.572000	0.492500	0.401900
H461	H46	0.617200	0.449200	0.352100
C161	C16	0.569680	0.555110	0.325100
H471	H47	0.617100	0.557700	0.301900
H481	H48	0.569200	0.600100	0.350800
H491	H49	0.763100	0.296100	0.475700
H501	H50	0.869200	0.203900	0.527500
C171	C17	0.770810	0.179670	0.611130
H511	H51	0.757500	0.178000	0.651900
H521	H52	0.800800	0.132800	0.602100
C181	C18	0.694890	0.180320	0.575100
H531	H53	0.692300	0.132900	0.551900
H541	H54	0.649900	0.180800	0.600800
H551	H55	0.263100	0.796100	0.975700
H561	H56	0.369200	0.703900	0.027500
C191	C19	0.270810	0.679670	0.111130
H571	H57	0.257500	0.678000	0.151900
H581	H58	0.300800	0.632800	0.102100
C201	C20	0.194890	0.680320	0.075100
H591	H59	0.192300	0.632900	0.051900
H601	H60	0.149900	0.680800	0.100800
H611	H61	0.736900	0.703900	0.975700
H621	H62	0.630800	0.796100	0.027500
C211	C21	0.729190	0.820330	0.111130
H631	H63	0.742500	0.822000	0.151900
H641	H64	0.699200	0.867200	0.102100
C221	C22	0.805110	0.819680	0.075100
H651	H65	0.807700	0.867100	0.051900
H661	H66	0.850100	0.819200	0.100800
H671	H67	0.236900	0.203900	0.475700
H681	H68	0.130800	0.296100	0.527500
C231	C23	0.229190	0.320330	0.611130
H691	H69	0.242500	0.322000	0.651900
H701	H70	0.199200	0.367200	0.602100
C241	C24	0.305110	0.319680	0.575100
H711	H71	0.307700	0.367100	0.551900
H721	H72	0.350100	0.319200	0.600800
H731	H73	0.046100	0.986900	0.725700
H741	H74	0.953900	0.880800	0.777500
C251	C25	0.929670	0.979190	0.861130
H751	H75	0.928000	0.992500	0.901900
H761	H76	0.882800	0.949200	0.852100
C261	C26	0.930320	0.055110	0.825100
H771	H77	0.882900	0.057700	0.801900
H781	H78	0.930800	0.100100	0.850800
H791	H79	0.546100	0.486900	0.225700
H801	H80	0.453900	0.380800	0.277500
C271	C27	0.429670	0.479190	0.361130
H811	H81	0.428000	0.492500	0.401900
H821	H82	0.382800	0.449200	0.352100
C281	C28	0.430320	0.555110	0.325100
H831	H83	0.382900	0.557700	0.301900
H841	H84	0.430800	0.600100	0.350800
H851	H85	0.453900	0.013100	0.225700
H861	H86	0.546100	0.119200	0.277500
C291	C29	0.570330	0.020810	0.361130
H871	H87	0.572000	0.007500	0.401900
H881	H88	0.617200	0.050800	0.352100
C301	C30	0.569680	0.944890	0.325100
H891	H89	0.617100	0.942300	0.301900
H901	H90	0.569200	0.899900	0.350800
H911	H91	0.953900	0.513100	0.725700
H921	H92	0.046100	0.619200	0.777500
C311	C31	0.070330	0.520810	0.861130
H931	H93	0.072000	0.507500	0.901900
H941	H94	0.117200	0.550800	0.852100
C321	C32	0.069680	0.444890	0.825100
H951	H95	0.117100	0.442300	0.801900
H961	H96	0.069200	0.399900	0.850800
Cu11	Cu1	0.088570	0.750000	0.984240
I11	I1	0.131120	0.750000	0.871980
N11	N1	0.191560	0.750000	0.036580
N21	N2	0.319400	0.750000	0.099480
C331	C33	0.263360	0.750000	0.000330
C341	C34	0.338200	0.750000	0.036750
Cu21	Cu2	0.411430	0.250000	0.484240
I21	I2	0.368880	0.250000	0.371980
N31	N3	0.308440	0.250000	0.536580
N41	N4	0.180600	0.250000	0.599480
C351	C35	0.236640	0.250000	0.500330
C361	C36	0.161800	0.250000	0.536750
Cu31	Cu3	0.500000	0.838570	0.234240
I31	I3	0.500000	0.881120	0.121980
N51	N5	0.500000	0.941560	0.286580
N61	N6	0.500000	0.069400	0.349480
C371	C37	0.500000	0.013360	0.250330
C381	C38	0.500000	0.088200	0.286750
Cu41	Cu4	0.000000	0.338570	0.734240
I41	I4	0.000000	0.381120	0.621980
N71	N7	0.000000	0.441560	0.786580
N81	N8	0.000000	0.569400	0.849480
C391	C39	0.000000	0.513360	0.750330
C401	C40	0.000000	0.588200	0.786750
Cu51	Cu5	0.000000	0.161430	0.734240
I51	I5	0.000000	0.118880	0.621980
N91	N9	0.000000	0.058440	0.786580
N101	N10	0.000000	0.930600	0.849480
C411	C41	0.000000	0.986640	0.750330
C421	C42	0.000000	0.911800	0.786750
Cu61	Cu6	0.500000	0.661430	0.234240
I61	I6	0.500000	0.618880	0.121980
N111	N11	0.500000	0.558440	0.286580
N121	N12	0.500000	0.430600	0.349480
C431	C43	0.500000	0.486640	0.250330
C441	C44	0.500000	0.411800	0.286750
Cu71	Cu7	0.588570	0.250000	0.484240
I71	I7	0.631120	0.250000	0.371980
N131	N13	0.691560	0.250000	0.536580
N141	N14	0.819400	0.250000	0.599480
C451	C45	0.763360	0.250000	0.500330
C461	C46	0.838200	0.250000	0.536750
Cu81	Cu8	0.911430	0.750000	0.984240
I81	I8	0.868880	0.750000	0.871980
N151	N15	0.808440	0.750000	0.036580
N161	N16	0.680600	0.750000	0.099480
C471	C47	0.736640	0.750000	0.000330
C481	C48	0.661800	0.750000	0.036750
Cu91	Cu9	0.000000	0.828100	0.900060
I91	I9	0.000000	0.875960	0.009400
Cu101	Cu10	0.500000	0.328100	0.400060
I101	I10	0.500000	0.375960	0.509400
Cu111	Cu11	0.500000	0.171900	0.400060
I111	I11	0.500000	0.124040	0.509400
Cu121	Cu12	0.000000	0.671900	0.900060
I121	I12	0.000000	0.624040	0.009400
Cu131	Cu13	0.421900	0.750000	0.150060
I131	I13	0.374040	0.750000	0.259400
Cu141	Cu14	0.078100	0.250000	0.650060
I141	I14	0.125960	0.250000	0.759400
Cu151	Cu15	0.921900	0.250000	0.650060
I151	I15	0.874040	0.250000	0.759400
Cu161	Cu16	0.578100	0.750000	0.150060
I161	I16	0.625960	0.750000	0.259400
H971	H97	0.236900	0.703900	0.524300
H981	H98	0.130800	0.796100	0.472500
C491	C49	0.229190	0.820330	0.388870
H991	H99	0.242500	0.822000	0.348100
H1001	H100	0.199200	0.867200	0.397900
C501	C50	0.305110	0.819680	0.424900
H1011	H101	0.307700	0.867100	0.448100
H1021	H102	0.350100	0.819200	0.399200
H1031	H103	0.736900	0.203900	0.024300
H1041	H104	0.630800	0.296100	0.972500
C511	C51	0.729190	0.320330	0.888870
H1051	H105	0.742500	0.322000	0.848100
H1061	H106	0.699200	0.367200	0.897900
C521	C52	0.805110	0.319680	0.924900
H1071	H107	0.807700	0.367100	0.948100
H1081	H108	0.850100	0.319200	0.899200
H1091	H109	0.263100	0.296100	0.024300
H1101	H110	0.369200	0.203900	0.972500
C531	C53	0.270810	0.179670	0.888870
H1111	H111	0.257500	0.178000	0.848100
H1121	H112	0.300800	0.132800	0.897900
C541	C54	0.194890	0.180320	0.924900
H1131	H113	0.192300	0.132900	0.948100
H1141	H114	0.149900	0.180800	0.899200
H1151	H115	0.763100	0.796100	0.524300
H1161	H116	0.869200	0.703900	0.472500
C551	C55	0.770810	0.679670	0.388870
H1171	H117	0.757500	0.678000	0.348100
H1181	H118	0.800800	0.632800	0.397900
C561	C56	0.694890	0.680320	0.424900
H1191	H119	0.692300	0.632900	0.448100
H1201	H120	0.649900	0.680800	0.399200
H1211	H121	0.953900	0.013100	0.274300
H1221	H122	0.046100	0.119200	0.222500
C571	C57	0.070330	0.020810	0.138870
H1231	H123	0.072000	0.007500	0.098100
H1241	H124	0.117200	0.050800	0.147900
C581	C58	0.069680	0.944890	0.174900
H1251	H125	0.117100	0.942300	0.198100
H1261	H126	0.069200	0.899900	0.149200
H1271	H127	0.453900	0.513100	0.774300
H1281	H128	0.546100	0.619200	0.722500
C591	C59	0.570330	0.520810	0.638870
H1291	H129	0.572000	0.507500	0.598100
H1301	H130	0.617200	0.550800	0.647900
C601	C60	0.569680	0.444890	0.674900
H1311	H131	0.617100	0.442300	0.698100
H1321	H132	0.569200	0.399900	0.649200
H1331	H133	0.546100	0.986900	0.774300
H1341	H134	0.453900	0.880800	0.722500
C611	C61	0.429670	0.979190	0.638870
H1351	H135	0.428000	0.992500	0.598100
H1361	H136	0.382800	0.949200	0.647900
C621	C62	0.430320	0.055110	0.674900
H1371	H137	0.382900	0.057700	0.698100
H1381	H138	0.430800	0.100100	0.649200
H1391	H139	0.046100	0.486900	0.274300
H1401	H140	0.953900	0.380800	0.222500
C631	C63	0.929670	0.479190	0.138870
H1411	H141	0.928000	0.492500	0.098100
H1421	H142	0.882800	0.449200	0.147900
C641	C64	0.930320	0.555110	0.174900
H1431	H143	0.882900	0.557700	0.198100
H1441	H144	0.930800	0.600100	0.149200
H1451	H145	0.736900	0.296100	0.024300
H1461	H146	0.630800	0.203900	0.972500
C651	C65	0.729190	0.179670	0.888870
H1471	H147	0.742500	0.178000	0.848100
H1481	H148	0.699200	0.132800	0.897900
C661	C66	0.805110	0.180320	0.924900
H1491	H149	0.807700	0.132900	0.948100
H1501	H150	0.850100	0.180800	0.899200
H1511	H151	0.236900	0.796100	0.524300
H1521	H152	0.130800	0.703900	0.472500
C671	C67	0.229190	0.679670	0.388870
H1531	H153	0.242500	0.678000	0.348100
H1541	H154	0.199200	0.632800	0.397900
C681	C68	0.305110	0.680320	0.424900
H1551	H155	0.307700	0.632900	0.448100
H1561	H156	0.350100	0.680800	0.399200
H1571	H157	0.763100	0.703900	0.524300
H1581	H158	0.869200	0.796100	0.472500
C691	C69	0.770810	0.820330	0.388870
H1591	H159	0.757500	0.822000	0.348100
H1601	H160	0.800800	0.867200	0.397900
C701	C70	0.694890	0.819680	0.424900
H1611	H161	0.692300	0.867100	0.448100
H1621	H162	0.649900	0.819200	0.399200
H1631	H163	0.263100	0.203900	0.024300
H1641	H164	0.369200	0.296100	0.972500
C711	C71	0.270810	0.320330	0.888870
H1651	H165	0.257500	0.322000	0.848100
H1661	H166	0.300800	0.367200	0.897900
C721	C72	0.194890	0.319680	0.924900
H1671	H167	0.192300	0.367100	0.948100
H1681	H168	0.149900	0.319200	0.899200
H1691	H169	0.453900	0.986900	0.774300
H1701	H170	0.546100	0.880800	0.722500
C731	C73	0.570330	0.979190	0.638870
H1711	H171	0.572000	0.992500	0.598100
H1721	H172	0.617200	0.949200	0.647900
C741	C74	0.569680	0.055110	0.674900
H1731	H173	0.617100	0.057700	0.698100
H1741	H174	0.569200	0.100100	0.649200
H1751	H175	0.953900	0.486900	0.274300
H1761	H176	0.046100	0.380800	0.222500
C751	C75	0.070330	0.479190	0.138870
H1771	H177	0.072000	0.492500	0.098100
H1781	H178	0.117200	0.449200	0.147900
C761	C76	0.069680	0.555110	0.174900
H1791	H179	0.117100	0.557700	0.198100
H1801	H180	0.069200	0.600100	0.149200
H1811	H181	0.046100	0.013100	0.274300
H1821	H182	0.953900	0.119200	0.222500
C771	C77	0.929670	0.020810	0.138870
H1831	H183	0.928000	0.007500	0.098100
H1841	H184	0.882800	0.050800	0.147900
C781	C78	0.930320	0.944890	0.174900
H1851	H185	0.882900	0.942300	0.198100
H1861	H186	0.930800	0.899900	0.149200
H1871	H187	0.546100	0.513100	0.774300
H1881	H188	0.453900	0.619200	0.722500
C791	C79	0.429670	0.520810	0.638870
H1891	H189	0.428000	0.507500	0.598100
H1901	H190	0.382800	0.550800	0.647900
C801	C80	0.430320	0.444890	0.674900
H1911	H191	0.382900	0.442300	0.698100
H1921	H192	0.430800	0.399900	0.649200
Cu171	Cu17	0.411430	0.750000	0.515760
I171	I17	0.368880	0.750000	0.628020
N171	N17	0.308440	0.750000	0.463420
N181	N18	0.180600	0.750000	0.400520
C811	C81	0.236640	0.750000	0.499670
C821	C82	0.161800	0.750000	0.463250
Cu181	Cu18	0.088570	0.250000	0.015760
I181	I18	0.131120	0.250000	0.128020
N191	N19	0.191560	0.250000	0.963420
N201	N20	0.319400	0.250000	0.900520
C831	C83	0.263360	0.250000	0.999670
C841	C84	0.338200	0.250000	0.963250
Cu191	Cu19	0.000000	0.838570	0.265760
I191	I19	0.000000	0.881120	0.378020
N211	N21	0.000000	0.941560	0.213420
N221	N22	0.000000	0.069400	0.150520
C851	C85	0.000000	0.013360	0.249670
C861	C86	0.000000	0.088200	0.213250
Cu201	Cu20	0.500000	0.338570	0.765760
I201	I20	0.500000	0.381120	0.878020
N231	N23	0.500000	0.441560	0.713420
N241	N24	0.500000	0.569400	0.650520
C871	C87	0.500000	0.513360	0.749670
C881	C88	0.500000	0.588200	0.713250
Cu211	Cu21	0.500000	0.161430	0.765760
I211	I21	0.500000	0.118880	0.878020
N251	N25	0.500000	0.058440	0.713420
N261	N26	0.500000	0.930600	0.650520
C891	C89	0.500000	0.986640	0.749670
C901	C90	0.500000	0.911800	0.713250
Cu221	Cu22	0.000000	0.661430	0.265760
I221	I22	0.000000	0.618880	0.378020
N271	N27	0.000000	0.558440	0.213420
N281	N28	0.000000	0.430600	0.150520
C911	C91	0.000000	0.486640	0.249670
C921	C92	0.000000	0.411800	0.213250
Cu231	Cu23	0.911430	0.250000	0.015760
I231	I23	0.868880	0.250000	0.128020
N291	N29	0.808440	0.250000	0.963420
N301	N30	0.680600	0.250000	0.900520
C931	C93	0.736640	0.250000	0.999670
C941	C94	0.661800	0.250000	0.963250
Cu241	Cu24	0.588570	0.750000	0.515760
I241	I24	0.631120	0.750000	0.628020
N311	N31	0.691560	0.750000	0.463420
N321	N32	0.819400	0.750000	0.400520
C951	C95	0.763360	0.750000	0.499670
C961	C96	0.838200	0.750000	0.463250
Cu251	Cu25	0.500000	0.828100	0.599940
I251	I25	0.500000	0.875960	0.490600
Cu261	Cu26	0.000000	0.328100	0.099940
I261	I26	0.000000	0.375960	0.990600
Cu271	Cu27	0.000000	0.171900	0.099940
I271	I27	0.000000	0.124040	0.990600
Cu281	Cu28	0.500000	0.671900	0.599940
I281	I28	0.500000	0.624040	0.490600
Cu291	Cu29	0.078100	0.750000	0.349940
I291	I29	0.125960	0.750000	0.240600
Cu301	Cu30	0.421900	0.250000	0.849940
I301	I30	0.374040	0.250000	0.740600
Cu311	Cu31	0.578100	0.250000	0.849940
I311	I31	0.625960	0.250000	0.740600
Cu321	Cu32	0.921900	0.750000	0.349940
I321	I32	0.874040	0.750000	0.240600
