data_WUZQOZ_clean_PM
_symmetry_space_group_name_H-M	'P1'
_cell_length_a	6.522800
_cell_length_b	13.841300
_cell_length_c	15.640500
_cell_angle_alpha	96.641000
_cell_angle_beta	93.775000
_cell_angle_gamma	94.727000
_symmetry_Int_Tables_number 1

loop_
_symmetry_equiv_pos_as_xyz
'x,y,z'

loop_
_atom_site_label
_atom_site_type_symbol
_atom_site_fract_x
_atom_site_fract_y
_atom_site_fract_z
Cu11	Cu1	0.695990	0.708590	0.708190
N11	N1	0.915100	0.983300	0.982300
N21	N2	0.526400	0.561900	0.913700
N31	N3	0.800100	0.785700	0.616300
N41	N4	0.576600	0.638000	0.802500
N51	N5	0.577400	0.511900	0.982300
N61	N6	0.853900	0.807900	0.802300
N71	N7	0.510800	0.614500	0.623700
N81	N8	0.229100	0.546300	0.552700
N91	N9	0.997800	0.995500	0.538500
N101	N10	0.066300	0.812100	0.818800
N111	N11	0.940600	0.911100	0.915600
C11	C1	0.340800	0.631600	0.581100
H11	H1	0.302900	0.693100	0.571900
N121	N12	0.914000	0.901200	0.546200
N131	N13	0.770400	0.750600	0.528300
C21	C2	0.781600	0.867500	0.860400
H21	H2	0.643500	0.878600	0.863800
N141	N14	0.510500	0.513500	0.623000
C31	C3	0.113900	0.875800	0.886700
H31	H3	0.246900	0.894200	0.911600
N151	N15	0.034300	0.543000	0.509700
N161	N16	0.368000	0.633900	0.816100
C41	C4	0.882500	0.874200	0.624600
H41	H4	0.915300	0.913600	0.676800
C51	C5	0.340000	0.474100	0.579800
H51	H5	0.300200	0.407500	0.569100
C61	C6	0.668900	0.594100	0.860900
H61	H6	0.809100	0.586000	0.866000
C71	C7	0.839300	0.822500	0.487800
H71	H7	0.837900	0.820700	0.428100
C81	C8	0.342400	0.588300	0.883300
H81	H8	0.217200	0.575700	0.906900
Cu21	Cu2	0.304010	0.291410	0.291810
N171	N17	0.084900	0.016700	0.017700
N181	N18	0.473600	0.438100	0.086300
N191	N19	0.199900	0.214300	0.383700
N201	N20	0.423400	0.362000	0.197500
N211	N21	0.422600	0.488100	0.017700
N221	N22	0.146100	0.192100	0.197700
N231	N23	0.489200	0.385500	0.376300
N241	N24	0.770900	0.453700	0.447300
N251	N25	0.002200	0.004500	0.461500
N261	N26	0.933700	0.187900	0.181200
N271	N27	0.059400	0.088900	0.084400
C91	C9	0.659200	0.368400	0.418900
H91	H9	0.697100	0.306900	0.428100
N281	N28	0.086000	0.098800	0.453800
N291	N29	0.229600	0.249400	0.471700
C101	C10	0.218400	0.132500	0.139600
H101	H10	0.356500	0.121400	0.136200
N301	N30	0.489500	0.486500	0.377000
C111	C11	0.886100	0.124200	0.113300
H111	H11	0.753100	0.105800	0.088400
N311	N31	0.965700	0.457000	0.490300
N321	N32	0.632000	0.366100	0.183900
C121	C12	0.117500	0.125800	0.375400
H121	H12	0.084700	0.086400	0.323200
C131	C13	0.660000	0.525900	0.420200
H131	H13	0.699800	0.592500	0.430900
C141	C14	0.331100	0.405900	0.139100
H141	H14	0.190900	0.414000	0.134000
C151	C15	0.160700	0.177500	0.512200
H151	H15	0.162100	0.179300	0.571900
C161	C16	0.657600	0.411700	0.116700
H161	H16	0.782800	0.424300	0.093100
