data_XACGIT_charged_PM
_symmetry_space_group_name_H-M	'P1'
_cell_length_a	13.073200
_cell_length_b	13.073200
_cell_length_c	13.435000
_cell_angle_alpha	90.000000
_cell_angle_beta	90.000000
_cell_angle_gamma	120.000000
_symmetry_Int_Tables_number 1

loop_
_symmetry_equiv_pos_as_xyz
'x,y,z'

loop_
_atom_site_label
_atom_site_type_symbol
_atom_site_fract_x
_atom_site_fract_y
_atom_site_fract_z
Cd11	Cd1	0.500000	0.500000	0.500000
Cd21	Cd2	0.000000	0.500000	0.500000
Cd31	Cd3	0.500000	0.000000	0.500000
Cd41	Cd4	0.500000	0.500000	0.000000
Cd51	Cd5	0.000000	0.500000	0.000000
Cd61	Cd6	0.500000	0.000000	0.000000
Cd71	Cd7	0.666670	0.333340	0.596610
Cd81	Cd8	0.333330	0.666660	0.096610
Cd91	Cd9	0.333330	0.666660	0.403390
Cd101	Cd10	0.666670	0.333340	0.903390
H11	H1	0.761500	0.708800	0.381600
H21	H2	0.947300	0.238500	0.381600
H31	H3	0.291200	0.052700	0.381600
H41	H4	0.238500	0.291200	0.881600
H51	H5	0.052700	0.761500	0.881600
H61	H6	0.708800	0.947300	0.881600
H71	H7	0.052700	0.291200	0.618400
H81	H8	0.708800	0.761500	0.618400
H91	H9	0.238500	0.947300	0.618400
H101	H10	0.947300	0.708800	0.118400
H111	H11	0.291200	0.238500	0.118400
H121	H12	0.761500	0.052700	0.118400
H131	H13	0.238500	0.291200	0.618400
H141	H14	0.052700	0.761500	0.618400
H151	H15	0.708800	0.947300	0.618400
H161	H16	0.761500	0.708800	0.118400
H171	H17	0.947300	0.238500	0.118400
H181	H18	0.291200	0.052700	0.118400
H191	H19	0.947300	0.708800	0.381600
H201	H20	0.291200	0.238500	0.381600
H211	H21	0.761500	0.052700	0.381600
H221	H22	0.052700	0.291200	0.881600
H231	H23	0.708800	0.761500	0.881600
H241	H24	0.238500	0.947300	0.881600
H251	H25	0.548400	0.451600	0.250000
H261	H26	0.903200	0.451600	0.250000
H271	H27	0.548400	0.096800	0.250000
H281	H28	0.451600	0.548400	0.750000
H291	H29	0.096800	0.548400	0.750000
H301	H30	0.451600	0.903200	0.750000
C11	C1	0.774700	0.651200	0.413800
C21	C2	0.876500	0.225300	0.413800
C31	C3	0.348800	0.123500	0.413800
C41	C4	0.225300	0.348800	0.913800
C51	C5	0.123500	0.774700	0.913800
C61	C6	0.651200	0.876500	0.913800
C71	C7	0.123500	0.348800	0.586200
C81	C8	0.651200	0.774700	0.586200
C91	C9	0.225300	0.876500	0.586200
C101	C10	0.876500	0.651200	0.086200
C111	C11	0.348800	0.225300	0.086200
C121	C12	0.774700	0.123500	0.086200
C131	C13	0.225300	0.348800	0.586200
C141	C14	0.123500	0.774700	0.586200
C151	C15	0.651200	0.876500	0.586200
C161	C16	0.774700	0.651200	0.086200
C171	C17	0.876500	0.225300	0.086200
C181	C18	0.348800	0.123500	0.086200
C191	C19	0.876500	0.651200	0.413800
C201	C20	0.348800	0.225300	0.413800
C211	C21	0.774700	0.123500	0.413800
C221	C22	0.123500	0.348800	0.913800
C231	C23	0.651200	0.774700	0.913800
C241	C24	0.225300	0.876500	0.913800
C251	C25	0.506550	0.493450	0.250000
C261	C26	0.986900	0.493450	0.250000
C271	C27	0.506550	0.013100	0.250000
C281	C28	0.493450	0.506550	0.750000
C291	C29	0.013100	0.506550	0.750000
C301	C30	0.493450	0.986900	0.750000
N11	N1	0.696400	0.558200	0.465600
N21	N2	0.861800	0.303600	0.465600
N31	N3	0.441800	0.138200	0.465600
N41	N4	0.303600	0.441800	0.965600
N51	N5	0.138200	0.696400	0.965600
N61	N6	0.558200	0.861800	0.965600
N71	N7	0.138200	0.441800	0.534400
N81	N8	0.558200	0.696400	0.534400
N91	N9	0.303600	0.861800	0.534400
N101	N10	0.861800	0.558200	0.034400
N111	N11	0.441800	0.303600	0.034400
N121	N12	0.696400	0.138200	0.034400
N131	N13	0.303600	0.441800	0.534400
N141	N14	0.138200	0.696400	0.534400
N151	N15	0.558200	0.861800	0.534400
N161	N16	0.696400	0.558200	0.034400
N171	N17	0.861800	0.303600	0.034400
N181	N18	0.441800	0.138200	0.034400
N191	N19	0.861800	0.558200	0.465600
N201	N20	0.441800	0.303600	0.465600
N211	N21	0.696400	0.138200	0.465600
N221	N22	0.138200	0.441800	0.965600
N231	N23	0.558200	0.696400	0.965600
N241	N24	0.303600	0.861800	0.965600
N251	N25	0.751050	0.502100	0.497600
N261	N26	0.582600	0.165200	0.700500
N271	N27	0.751050	0.248950	0.497600
N281	N28	0.582600	0.417400	0.700500
N291	N29	0.497900	0.248950	0.497600
N301	N30	0.834800	0.417400	0.700500
N311	N31	0.248950	0.497900	0.997600
N321	N32	0.417400	0.834800	0.200500
N331	N33	0.248950	0.751050	0.997600
N341	N34	0.417400	0.582600	0.200500
N351	N35	0.502100	0.751050	0.997600
N361	N36	0.165200	0.582600	0.200500
N371	N37	0.248950	0.497900	0.502400
N381	N38	0.417400	0.834800	0.299500
N391	N39	0.502100	0.751050	0.502400
N401	N40	0.165200	0.582600	0.299500
N411	N41	0.248950	0.751050	0.502400
N421	N42	0.417400	0.582600	0.299500
N431	N43	0.751050	0.502100	0.002400
N441	N44	0.582600	0.165200	0.799500
N451	N45	0.497900	0.248950	0.002400
N461	N46	0.834800	0.417400	0.799500
N471	N47	0.751050	0.248950	0.002400
N481	N48	0.582600	0.417400	0.799500
N491	N49	0.473450	0.526550	0.331300
N501	N50	0.053100	0.526550	0.331300
N511	N51	0.473450	0.946900	0.331300
N521	N52	0.526550	0.473450	0.831300
N531	N53	0.946900	0.473450	0.831300
N541	N54	0.526550	0.053100	0.831300
N551	N55	0.946900	0.473450	0.668700
N561	N56	0.526550	0.473450	0.668700
N571	N57	0.526550	0.053100	0.668700
N581	N58	0.053100	0.526550	0.168700
N591	N59	0.473450	0.526550	0.168700
N601	N60	0.473450	0.946900	0.168700
N611	N61	0.333330	0.666660	0.750000
O11	O1	0.278450	0.556900	0.750000
O21	O2	0.278450	0.721550	0.750000
O31	O3	0.443100	0.721550	0.750000
N621	N62	0.666670	0.333340	0.250000
O41	O4	0.721550	0.443100	0.250000
O51	O5	0.721550	0.278450	0.250000
O61	O6	0.556900	0.278450	0.250000
