data_XACHOA_clean_PM
_symmetry_space_group_name_H-M	'P1'
_cell_length_a	11.819000
_cell_length_b	12.674100
_cell_length_c	13.758500
_cell_angle_alpha	85.865300
_cell_angle_beta	81.619700
_cell_angle_gamma	84.094500
_symmetry_Int_Tables_number 1

loop_
_symmetry_equiv_pos_as_xyz
'x,y,z'

loop_
_atom_site_label
_atom_site_type_symbol
_atom_site_fract_x
_atom_site_fract_y
_atom_site_fract_z
Cu11	Cu1	0.735390	0.722290	0.987720
Cu21	Cu2	0.271630	0.296160	0.518780
N11	N1	0.633000	0.639000	0.924700
N21	N2	0.357900	0.371000	0.603500
N31	N3	0.654700	0.828600	0.087300
N41	N4	0.377500	0.211500	0.415400
N51	N5	0.831500	0.820400	0.891100
N61	N6	0.175300	0.180900	0.594700
N71	N7	0.841600	0.620700	0.065400
N81	N8	0.158600	0.391000	0.443400
C11	C1	0.544700	0.686700	0.880100
C21	C2	0.491600	0.637100	0.816600
C31	C3	0.525400	0.532000	0.797300
C41	C4	0.613500	0.479800	0.846100
C51	C5	0.664000	0.537200	0.907500
C61	C6	0.471900	0.476100	0.727200
C71	C7	0.462400	0.367200	0.740500
C81	C8	0.405200	0.319200	0.678500
C91	C9	0.370500	0.474900	0.590000
C101	C10	0.426500	0.529500	0.648000
C111	C11	0.715500	0.881900	0.138600
C121	C12	0.668100	0.955900	0.205600
C131	C13	0.550100	0.978200	0.221900
C141	C14	0.484600	0.922000	0.169100
C151	C15	0.539800	0.849200	0.104100
C161	C16	0.491900	0.059000	0.289200
C171	C17	0.387500	0.111400	0.274100
C181	C18	0.333700	0.185800	0.336900
C191	C19	0.479700	0.161100	0.429800
C201	C20	0.538900	0.086300	0.369200
C211	C21	0.919800	0.785600	0.824800
C221	C22	0.985200	0.851800	0.762100
C231	C23	0.961200	0.960900	0.764900
C241	C24	0.867800	0.998500	0.832200
C251	C25	0.806700	0.926100	0.892000
C261	C26	0.034300	0.037100	0.704100
C271	C27	0.042700	0.136800	0.736600
C281	C28	0.112500	0.205300	0.681000
C291	C29	0.167200	0.085000	0.563500
C301	C30	0.098900	0.011200	0.614700
C311	C31	0.802800	0.541000	0.127900
C321	C32	0.860400	0.494800	0.201400
C331	C33	0.965100	0.528600	0.215300
C341	C34	0.008200	0.607200	0.148600
C351	C35	0.945300	0.650300	0.075900
C361	C36	0.029200	0.484100	0.296800
C371	C37	0.131100	0.521000	0.310200
C381	C38	0.192900	0.472400	0.381700
C391	C39	0.056100	0.360800	0.434700
C401	C40	0.989600	0.403800	0.363800
H11	H1	0.518000	0.759000	0.894000
H21	H2	0.431000	0.675000	0.785000
H31	H3	0.638000	0.406000	0.838000
H41	H4	0.724000	0.501000	0.940000
H51	H5	0.495000	0.326000	0.793000
H61	H6	0.400000	0.244000	0.688000
H71	H7	0.339000	0.514000	0.536000
H81	H8	0.433000	0.604000	0.635000
H91	H9	0.798000	0.868000	0.128000
H101	H10	0.716000	0.992000	0.240000
H111	H11	0.402000	0.934000	0.179000
H121	H12	0.494000	0.812000	0.069000
H131	H13	0.352000	0.095000	0.219000
H141	H14	0.261000	0.222000	0.324000
H151	H15	0.513000	0.179000	0.485000
H161	H16	0.612000	0.053000	0.383000
H171	H17	0.938000	0.710000	0.821000
H181	H18	0.048000	0.823000	0.716000
H191	H19	0.846000	0.073000	0.836000
H201	H20	0.743000	0.953000	0.938000
H211	H21	0.999000	0.158000	0.798000
H221	H22	0.117000	0.274000	0.705000
H231	H23	0.211000	0.066000	0.502000
H241	H24	0.096000	0.943000	0.589000
H251	H25	0.731000	0.516000	0.120000
H261	H26	0.829000	0.439000	0.244000
H271	H27	0.082000	0.631000	0.152000
H281	H28	0.976000	0.705000	0.031000
H291	H29	0.160000	0.579000	0.269000
H301	H30	0.265000	0.498000	0.388000
H311	H31	0.027000	0.306000	0.480000
H321	H32	0.917000	0.378000	0.361000
Cu31	Cu3	0.264610	0.277710	0.012280
Cu41	Cu4	0.728370	0.703840	0.481220
N91	N9	0.367000	0.361000	0.075300
N101	N10	0.642100	0.629000	0.396500
N111	N11	0.345300	0.171400	0.912700
N121	N12	0.622500	0.788500	0.584600
N131	N13	0.168500	0.179600	0.108900
N141	N14	0.824700	0.819100	0.405300
N151	N15	0.158400	0.379300	0.934600
N161	N16	0.841400	0.609000	0.556600
C411	C41	0.455300	0.313300	0.119900
C421	C42	0.508400	0.362900	0.183400
C431	C43	0.474600	0.468000	0.202700
C441	C44	0.386500	0.520200	0.153900
C451	C45	0.336000	0.462800	0.092500
C461	C46	0.528100	0.523900	0.272800
C471	C47	0.537600	0.632800	0.259500
C481	C48	0.594800	0.680800	0.321500
C491	C49	0.629500	0.525100	0.410000
C501	C50	0.573500	0.470500	0.352000
C511	C51	0.284500	0.118100	0.861400
C521	C52	0.331900	0.044100	0.794400
C531	C53	0.449900	0.021800	0.778100
C541	C54	0.515400	0.078000	0.830900
C551	C55	0.460200	0.150800	0.895900
C561	C56	0.508100	0.941000	0.710800
C571	C57	0.612500	0.888600	0.725900
C581	C58	0.666300	0.814200	0.663100
C591	C59	0.520300	0.838900	0.570200
C601	C60	0.461100	0.913700	0.630800
C611	C61	0.080200	0.214400	0.175200
C621	C62	0.014800	0.148200	0.237900
C631	C63	0.038800	0.039100	0.235100
C641	C64	0.132200	0.001500	0.167800
C651	C65	0.193300	0.073900	0.108000
C661	C66	0.965700	0.962900	0.295900
C671	C67	0.957300	0.863200	0.263400
C681	C68	0.887500	0.794700	0.319000
C691	C69	0.832800	0.915000	0.436500
C701	C70	0.901100	0.988800	0.385300
C711	C71	0.197200	0.459000	0.872100
C721	C72	0.139600	0.505200	0.798600
C731	C73	0.034900	0.471400	0.784700
C741	C74	0.991800	0.392800	0.851400
C751	C75	0.054700	0.349700	0.924100
C761	C76	0.970800	0.515900	0.703200
C771	C77	0.868900	0.479000	0.689800
C781	C78	0.807100	0.527600	0.618300
C791	C79	0.943900	0.639200	0.565300
C801	C80	0.010400	0.596200	0.636200
H331	H33	0.482000	0.241000	0.106000
H341	H34	0.569000	0.325000	0.215000
H351	H35	0.362000	0.594000	0.162000
H361	H36	0.276000	0.499000	0.060000
H371	H37	0.505000	0.674000	0.207000
H381	H38	0.600000	0.756000	0.312000
H391	H39	0.661000	0.486000	0.464000
H401	H40	0.567000	0.396000	0.365000
H411	H41	0.202000	0.132000	0.872000
H421	H42	0.284000	0.008000	0.760000
H431	H43	0.598000	0.066000	0.821000
H441	H44	0.506000	0.188000	0.931000
H451	H45	0.648000	0.905000	0.781000
H461	H46	0.739000	0.778000	0.676000
H471	H47	0.487000	0.821000	0.515000
H481	H48	0.388000	0.947000	0.617000
H491	H49	0.062000	0.290000	0.179000
H501	H50	0.952000	0.177000	0.284000
H511	H51	0.154000	0.927000	0.164000
H521	H52	0.257000	0.047000	0.062000
H531	H53	0.001000	0.842000	0.202000
H541	H54	0.883000	0.726000	0.295000
H551	H55	0.789000	0.934000	0.498000
H561	H56	0.904000	0.057000	0.411000
H571	H57	0.269000	0.484000	0.880000
H581	H58	0.171000	0.561000	0.756000
H591	H59	0.918000	0.369000	0.848000
H601	H60	0.024000	0.295000	0.969000
H611	H61	0.840000	0.421000	0.731000
H621	H62	0.735000	0.502000	0.612000
H631	H63	0.973000	0.694000	0.520000
H641	H64	0.083000	0.622000	0.639000
