data_XACPEW_clean_PM
_symmetry_space_group_name_H-M	'P1'
_cell_length_a	7.569000
_cell_length_b	7.821000
_cell_length_c	18.033000
_cell_angle_alpha	90.000000
_cell_angle_beta	98.800000
_cell_angle_gamma	90.000000
_symmetry_Int_Tables_number 1

loop_
_symmetry_equiv_pos_as_xyz
'x,y,z'

loop_
_atom_site_label
_atom_site_type_symbol
_atom_site_fract_x
_atom_site_fract_y
_atom_site_fract_z
Fe11	Fe1	0.365900	0.056500	0.635200
Fe21	Fe2	0.712200	0.798000	0.690100
P11	P1	0.554000	0.417100	0.690900
O11	O1	0.422000	0.306500	0.639900
O21	O2	0.195100	0.848400	0.616900
O31	O3	0.584700	0.946500	0.592600
O41	O4	0.505900	0.933900	0.732200
O51	O5	0.298200	0.097700	0.512400
O61	O6	0.139100	0.129900	0.697400
O71	O7	0.578800	0.588800	0.656000
O81	O8	0.943400	0.735800	0.642800
O91	O9	0.881800	0.011900	0.721200
O101	O10	0.745100	0.330700	0.700300
C11	C1	0.057700	0.852500	0.646900
C21	C2	0.024200	0.013200	0.693500
C31	C3	0.583800	0.955600	0.522200
Fe31	Fe3	0.634100	0.556500	0.864800
Fe41	Fe4	0.287800	0.298000	0.809900
P21	P2	0.446000	0.917100	0.809100
O111	O11	0.578000	0.806500	0.860100
O121	O12	0.804900	0.348400	0.883100
O131	O13	0.415300	0.446500	0.907400
O141	O14	0.494100	0.433900	0.767800
O151	O15	0.701800	0.597700	0.987600
O161	O16	0.860900	0.629900	0.802600
O171	O17	0.421200	0.088800	0.844000
O181	O18	0.056600	0.235800	0.857200
O191	O19	0.118200	0.511900	0.778800
O201	O20	0.254900	0.830700	0.799700
C41	C4	0.942300	0.352500	0.853100
C51	C5	0.975800	0.513200	0.806500
C61	C6	0.416200	0.455600	0.977800
Fe51	Fe5	0.634100	0.943500	0.364800
Fe61	Fe6	0.287800	0.202000	0.309900
P31	P3	0.446000	0.582900	0.309100
O211	O21	0.578000	0.693500	0.360100
O221	O22	0.804900	0.151600	0.383100
O231	O23	0.415300	0.053500	0.407400
O241	O24	0.494100	0.066100	0.267800
O251	O25	0.701800	0.902300	0.487600
O261	O26	0.860900	0.870100	0.302600
O271	O27	0.421200	0.411200	0.344000
O281	O28	0.056600	0.264200	0.357200
O291	O29	0.118200	0.988100	0.278800
O301	O30	0.254900	0.669300	0.299700
C71	C7	0.942300	0.147500	0.353100
C81	C8	0.975800	0.986800	0.306500
C91	C9	0.416200	0.044400	0.477800
Fe71	Fe7	0.365900	0.443500	0.135200
Fe81	Fe8	0.712200	0.702000	0.190100
P41	P4	0.554000	0.082900	0.190900
O311	O31	0.422000	0.193500	0.139900
O321	O32	0.195100	0.651600	0.116900
O331	O33	0.584700	0.553500	0.092600
O341	O34	0.505900	0.566100	0.232200
O351	O35	0.298200	0.402300	0.012400
O361	O36	0.139100	0.370100	0.197400
O371	O37	0.578800	0.911200	0.156000
O381	O38	0.943400	0.764200	0.142800
O391	O39	0.881800	0.488100	0.221200
O401	O40	0.745100	0.169300	0.200300
C101	C10	0.057700	0.647500	0.146900
C111	C11	0.024200	0.486800	0.193500
C121	C12	0.583800	0.544400	0.022200
