data_XACQAT_clean_PM
_symmetry_space_group_name_H-M	'P1'
_cell_length_a	5.040000
_cell_length_b	22.738000
_cell_length_c	9.296800
_cell_angle_alpha	90.000000
_cell_angle_beta	103.800000
_cell_angle_gamma	90.000000
_symmetry_Int_Tables_number 1

loop_
_symmetry_equiv_pos_as_xyz
'x,y,z'

loop_
_atom_site_label
_atom_site_type_symbol
_atom_site_fract_x
_atom_site_fract_y
_atom_site_fract_z
Ga11	Ga1	0.819500	0.211190	0.745830
Ga21	Ga2	0.179600	0.063070	0.601660
Ga31	Ga3	0.931900	0.927140	0.016980
Ga41	Ga4	0.571300	0.077370	0.151270
P11	P1	0.350000	0.155000	0.877700
P21	P2	0.116100	0.016900	0.269100
P31	P3	0.405200	0.982780	0.877000
P41	P4	0.317000	0.830470	0.136200
P51	P5	0.631400	0.127650	0.484100
O11	O1	0.764900	0.186600	0.556100
O21	O2	0.282100	0.789000	0.259900
O31	O3	0.179600	0.214000	0.851500
O41	O4	0.634600	0.167400	0.853700
O51	O5	0.189200	0.110500	0.778000
O61	O6	0.801700	0.075100	0.548100
O71	O7	0.351900	0.000900	0.713400
O81	O8	0.138200	0.009800	0.434600
O91	O9	0.346000	0.123100	0.514700
O101	O10	0.034600	0.850600	0.043900
O111	O11	0.588600	0.928200	0.897200
O121	O12	0.129200	0.967900	0.907300
O131	O13	0.973000	0.961700	0.198100
O141	O14	0.386100	0.141500	0.042800
O151	O15	0.552800	0.032100	0.976200
O161	O16	0.609500	0.136700	0.319800
O171	O17	0.403300	0.023000	0.243500
O181	O18	0.952700	0.072700	0.204600
O191	O19	0.425100	0.792800	0.019200
O201	O20	0.504300	0.880200	0.197200
Ga51	Ga5	0.180500	0.711190	0.254170
Ga61	Ga6	0.820400	0.563070	0.398340
Ga71	Ga7	0.068100	0.427140	0.983020
Ga81	Ga8	0.428700	0.577370	0.848730
P61	P6	0.650000	0.655000	0.122300
P71	P7	0.883900	0.516900	0.730900
P81	P8	0.594800	0.482780	0.123000
P91	P9	0.683000	0.330470	0.863800
P101	P10	0.368600	0.627650	0.515900
O211	O21	0.235100	0.686600	0.443900
O221	O22	0.717900	0.289000	0.740100
O231	O23	0.820400	0.714000	0.148500
O241	O24	0.365400	0.667400	0.146300
O251	O25	0.810800	0.610500	0.222000
O261	O26	0.198300	0.575100	0.451900
O271	O27	0.648100	0.500900	0.286600
O281	O28	0.861800	0.509800	0.565400
O291	O29	0.654000	0.623100	0.485300
O301	O30	0.965400	0.350600	0.956100
O311	O31	0.411400	0.428200	0.102800
O321	O32	0.870800	0.467900	0.092700
O331	O33	0.027000	0.461700	0.801900
O341	O34	0.613900	0.641500	0.957200
O351	O35	0.447200	0.532100	0.023800
O361	O36	0.390500	0.636700	0.680200
O371	O37	0.596700	0.523000	0.756500
O381	O38	0.047300	0.572700	0.795400
O391	O39	0.574900	0.292800	0.980800
O401	O40	0.495700	0.380200	0.802800
