data_XADDUD_clean_PM
_symmetry_space_group_name_H-M	'P1'
_cell_length_a	11.207200
_cell_length_b	22.303400
_cell_length_c	22.303400
_cell_angle_alpha	86.380900
_cell_angle_beta	75.448800
_cell_angle_gamma	75.448800
_symmetry_Int_Tables_number 1

loop_
_symmetry_equiv_pos_as_xyz
'x,y,z'

loop_
_atom_site_label
_atom_site_type_symbol
_atom_site_fract_x
_atom_site_fract_y
_atom_site_fract_z
Co11	Co1	0.036060	0.403460	0.868280
Co21	Co2	0.255320	0.398620	0.729960
Co31	Co3	0.807800	0.096540	0.631720
Co41	Co4	0.883900	0.101380	0.770040
Co51	Co5	0.904340	0.131720	0.903460
Co61	Co6	0.985280	0.270040	0.898620
Co71	Co7	0.439520	0.368280	0.596540
Co81	Co8	0.653940	0.229960	0.601380
Co91	Co9	0.963940	0.596540	0.131720
Co101	Co10	0.744680	0.601380	0.270040
Co111	Co11	0.192200	0.903460	0.368280
Co121	Co12	0.116100	0.898620	0.229960
Co131	Co13	0.095660	0.868280	0.096540
Co141	Co14	0.014720	0.729960	0.101380
Co151	Co15	0.560480	0.631720	0.403460
Co161	Co16	0.346060	0.770040	0.398620
H11	H1	0.395900	0.547300	0.795100
H21	H2	0.431200	0.628400	0.842000
H31	H3	0.304500	0.665200	0.937200
H41	H4	0.120600	0.531400	0.945200
H51	H5	0.282400	0.214700	0.927300
H61	H6	0.434300	0.122900	0.929100
H71	H7	0.589900	0.086800	0.840400
H81	H8	0.433500	0.231300	0.745900
H91	H9	0.238300	0.952700	0.704900
H101	H10	0.401600	0.871600	0.658000
H111	H11	0.406900	0.834800	0.562800
H121	H12	0.097200	0.968600	0.554800
H131	H13	0.924400	0.285300	0.572700
H141	H14	0.986300	0.377100	0.570900
H151	H15	0.017100	0.413200	0.659600
H161	H16	0.910700	0.268700	0.754100
H171	H17	0.191000	0.204900	0.047300
H181	H18	0.273200	0.158000	0.128400
H191	H19	0.241700	0.062800	0.165200
H201	H20	0.065800	0.054800	0.031400
H211	H21	0.209700	0.072700	0.714700
H221	H22	0.363400	0.070900	0.622900
H231	H23	0.430300	0.159600	0.586800
H241	H24	0.179400	0.254100	0.731300
H251	H25	0.943200	0.295100	0.452700
H261	H26	0.059600	0.342000	0.371600
H271	H27	0.969700	0.437200	0.334800
H281	H28	0.652000	0.445200	0.468600
H291	H29	0.497100	0.427300	0.785300
H301	H30	0.557200	0.429100	0.877100
H311	H31	0.676700	0.340400	0.913200
H321	H32	0.664800	0.245900	0.768700
H331	H33	0.604100	0.452700	0.204900
H341	H34	0.568800	0.371600	0.158000
H351	H35	0.695500	0.334800	0.062800
H361	H36	0.879400	0.468600	0.054800
H371	H37	0.717600	0.785300	0.072700
H381	H38	0.565700	0.877100	0.070900
H391	H39	0.410100	0.913200	0.159600
H401	H40	0.566500	0.768700	0.254100
H411	H41	0.761700	0.047300	0.295100
H421	H42	0.598400	0.128400	0.342000
H431	H43	0.593100	0.165200	0.437200
H441	H44	0.902800	0.031400	0.445200
H451	H45	0.075600	0.714700	0.427300
H461	H46	0.013700	0.622900	0.429100
H471	H47	0.982900	0.586800	0.340400
H481	H48	0.089300	0.731300	0.245900
H491	H49	0.809000	0.795100	0.952700
H501	H50	0.726800	0.842000	0.871600
H511	H51	0.758300	0.937200	0.834800
H521	H52	0.934200	0.945200	0.968600
H531	H53	0.790300	0.927300	0.285300
H541	H54	0.636600	0.929100	0.377100
H551	H55	0.569700	0.840400	0.413200
H561	H56	0.820600	0.745900	0.268700
H571	H57	0.056800	0.704900	0.547300
H581	H58	0.940400	0.658000	0.628400
H591	H59	0.030300	0.562800	0.665200
H601	H60	0.348000	0.554800	0.531400
H611	H61	0.502900	0.572700	0.214700
H621	H62	0.442800	0.570900	0.122900
H631	H63	0.323300	0.659600	0.086800
H641	H64	0.335200	0.754100	0.231300
C11	C1	0.228340	0.477730	0.837790
C21	C2	0.253970	0.531300	0.865560
C31	C3	0.347100	0.560560	0.834440
C41	C4	0.366800	0.609600	0.862200
C51	C5	0.292220	0.631150	0.919610
C61	C6	0.199320	0.602000	0.950760
C71	C7	0.181680	0.551750	0.923890
C81	C8	0.116420	0.624210	0.013350
C91	C9	0.254500	0.294800	0.832600
C101	C10	0.343920	0.233150	0.836410
C111	C11	0.343560	0.200090	0.891390
C121	C12	0.435050	0.145140	0.892360
C131	C13	0.527600	0.122930	0.839070
C141	C14	0.526160	0.155260	0.783820
C151	C15	0.434400	0.209850	0.782950
C161	C16	0.626230	0.135180	0.726160
C171	C17	0.043860	0.022270	0.662210
C181	C18	0.150830	0.968700	0.634440
C191	C19	0.242100	0.939440	0.665560
C201	C20	0.338600	0.890400	0.637800
C211	C21	0.342980	0.868850	0.580390
C221	C22	0.252080	0.898000	0.549240
C231	C23	0.157320	0.948250	0.576110
C241	C24	0.253980	0.875790	0.486650
C251	C25	0.881900	0.205200	0.667400
C261	C26	0.913480	0.266850	0.663590
C271	C27	0.935040	0.299910	0.608610
C281	C28	0.972550	0.354860	0.607640
C291	C29	0.989600	0.377070	0.660930
C301	C30	0.965240	0.344740	0.716180
C311	C31	0.927200	0.290150	0.717050
C321	C32	0.987570	0.364820	0.773840
C331	C33	0.066130	0.162210	0.977730
C341	C34	0.119530	0.134440	0.031300
C351	C35	0.181540	0.165560	0.060560
C361	C36	0.229000	0.137800	0.109600
C371	C37	0.211830	0.080390	0.131150
C381	C38	0.150080	0.049240	0.102000
C391	C39	0.105570	0.076110	0.051750
C401	C40	0.129770	0.986650	0.124210
C411	C41	0.087100	0.167400	0.794800
C421	C42	0.180330	0.163590	0.733150
C431	C43	0.234950	0.108610	0.700090
C441	C44	0.327410	0.107640	0.645140
C451	C45	0.366670	0.160930	0.622930
C461	C46	0.309980	0.216180	0.655260
C471	C47	0.217350	0.217050	0.709850
C481	C48	0.352390	0.273840	0.635180
C491	C49	0.706070	0.337790	0.522270
C501	C50	0.785270	0.365560	0.468700
C511	C51	0.907660	0.334440	0.439440
C521	C52	0.976400	0.362200	0.390400
C531	C53	0.923370	0.419610	0.368850
C541	C54	0.801320	0.450760	0.398000
C551	C55	0.733430	0.423890	0.448250
C561	C56	0.740630	0.513350	0.375790
C571	C57	0.549300	0.332600	0.705200
C581	C58	0.577070	0.336410	0.766850
C591	C59	0.543650	0.391390	0.799910
C601	C60	0.580190	0.392360	0.854860
C611	C61	0.650530	0.339070	0.877070
C621	C62	0.681420	0.283820	0.844740
C631	C63	0.644250	0.282950	0.790150
C641	C64	0.761410	0.226160	0.864820
C651	C65	0.771660	0.522270	0.162210
C661	C66	0.746030	0.468700	0.134440
C671	C67	0.652900	0.439440	0.165560
C681	C68	0.633200	0.390400	0.137800
C691	C69	0.707780	0.368850	0.080390
C701	C70	0.800680	0.398000	0.049240
C711	C71	0.818320	0.448250	0.076110
C721	C72	0.883580	0.375790	0.986650
C731	C73	0.745500	0.705200	0.167400
C741	C74	0.656080	0.766850	0.163590
C751	C75	0.656440	0.799910	0.108610
C761	C76	0.564950	0.854860	0.107640
C771	C77	0.472400	0.877070	0.160930
C781	C78	0.473840	0.844740	0.216180
C791	C79	0.565600	0.790150	0.217050
C801	C80	0.373770	0.864820	0.273840
C811	C81	0.956140	0.977730	0.337790
C821	C82	0.849170	0.031300	0.365560
C831	C83	0.757900	0.060560	0.334440
C841	C84	0.661400	0.109600	0.362200
C851	C85	0.657020	0.131150	0.419610
C861	C86	0.747920	0.102000	0.450760
C871	C87	0.842680	0.051750	0.423890
C881	C88	0.746020	0.124210	0.513350
C891	C89	0.118100	0.794800	0.332600
C901	C90	0.086520	0.733150	0.336410
C911	C91	0.064960	0.700090	0.391390
C921	C92	0.027450	0.645140	0.392360
C931	C93	0.010400	0.622930	0.339070
C941	C94	0.034760	0.655260	0.283820
C951	C95	0.072800	0.709850	0.282950
C961	C96	0.012430	0.635180	0.226160
C971	C97	0.933870	0.837790	0.022270
C981	C98	0.880470	0.865560	0.968700
C991	C99	0.818460	0.834440	0.939440
C1001	C100	0.771000	0.862200	0.890400
C1011	C101	0.788170	0.919610	0.868850
C1021	C102	0.849920	0.950760	0.898000
C1031	C103	0.894430	0.923890	0.948250
C1041	C104	0.870230	0.013350	0.875790
C1051	C105	0.912900	0.832600	0.205200
C1061	C106	0.819670	0.836410	0.266850
C1071	C107	0.765050	0.891390	0.299910
C1081	C108	0.672590	0.892360	0.354860
C1091	C109	0.633330	0.839070	0.377070
C1101	C110	0.690020	0.783820	0.344740
C1111	C111	0.782650	0.782950	0.290150
C1121	C112	0.647610	0.726160	0.364820
C1131	C113	0.293930	0.662210	0.477730
C1141	C114	0.214730	0.634440	0.531300
C1151	C115	0.092340	0.665560	0.560560
C1161	C116	0.023600	0.637800	0.609600
C1171	C117	0.076630	0.580390	0.631150
C1181	C118	0.198680	0.549240	0.602000
C1191	C119	0.266570	0.576110	0.551750
C1201	C120	0.259370	0.486650	0.624210
C1211	C121	0.450700	0.667400	0.294800
C1221	C122	0.422930	0.663590	0.233150
C1231	C123	0.456350	0.608610	0.200090
C1241	C124	0.419810	0.607640	0.145140
C1251	C125	0.349470	0.660930	0.122930
C1261	C126	0.318580	0.716180	0.155260
C1271	C127	0.355750	0.717050	0.209850
C1281	C128	0.238590	0.773840	0.135180
O11	O1	0.169000	0.444890	0.875510
O21	O2	0.267590	0.468960	0.780660
O31	O3	0.034220	0.595050	0.038710
O41	O4	0.134850	0.669870	0.036430
O51	O5	0.150760	0.311700	0.873980
O61	O6	0.290750	0.327210	0.787090
O71	O7	0.610460	0.154010	0.673870
O81	O8	0.731220	0.097270	0.729690
O91	O9	0.989400	0.055110	0.624490
O101	O10	0.017210	0.031040	0.719340
O111	O11	0.167980	0.904950	0.461290
O121	O12	0.341150	0.830130	0.463570
O131	O13	0.836440	0.188300	0.626020
O141	O14	0.905050	0.172790	0.712910
O151	O15	0.938340	0.345990	0.826130
O161	O16	0.058180	0.402730	0.770310
O171	O17	0.044510	0.124490	0.944890
O181	O18	0.048250	0.219340	0.968960
O191	O19	0.072930	0.961290	0.095050
O201	O20	0.171280	0.963570	0.169870
O211	O21	0.024740	0.126020	0.811700
O221	O22	0.077840	0.212910	0.827210
O231	O23	0.284330	0.326130	0.654010
O241	O24	0.460910	0.270310	0.597270
O251	O25	0.613890	0.375510	0.555110
O261	O26	0.736550	0.280660	0.531040
O271	O27	0.629270	0.538710	0.404950
O281	O28	0.804720	0.536430	0.330130
O291	O29	0.462460	0.373980	0.688300
O301	O30	0.617960	0.287090	0.672790
O311	O31	0.764470	0.173870	0.845990
O321	O32	0.828490	0.229690	0.902730
O331	O33	0.831000	0.555110	0.124490
O341	O34	0.732410	0.531040	0.219340
O351	O35	0.965780	0.404950	0.961290
O361	O36	0.865150	0.330130	0.963570
O371	O37	0.849240	0.688300	0.126020
O381	O38	0.709250	0.672790	0.212910
O391	O39	0.389540	0.845990	0.326130
O401	O40	0.268780	0.902730	0.270310
O411	O41	0.010600	0.944890	0.375510
O421	O42	0.982790	0.968960	0.280660
O431	O43	0.832020	0.095050	0.538710
O441	O44	0.658850	0.169870	0.536430
O451	O45	0.163560	0.811700	0.373980
O461	O46	0.094950	0.827210	0.287090
O471	O47	0.061660	0.654010	0.173870
O481	O48	0.941820	0.597270	0.229690
O491	O49	0.955490	0.875510	0.055110
O501	O50	0.951750	0.780660	0.031040
O511	O51	0.927070	0.038710	0.904950
O521	O52	0.828720	0.036430	0.830130
O531	O53	0.975260	0.873980	0.188300
O541	O54	0.922160	0.787090	0.172790
O551	O55	0.715670	0.673870	0.345990
O561	O56	0.539090	0.729690	0.402730
O571	O57	0.386110	0.624490	0.444890
O581	O58	0.263450	0.719340	0.468960
O591	O59	0.370730	0.461290	0.595050
O601	O60	0.195280	0.463570	0.669870
O611	O61	0.537540	0.626020	0.311700
O621	O62	0.382040	0.712910	0.327210
O631	O63	0.235530	0.826130	0.154010
O641	O64	0.171510	0.770310	0.097270
