data_XADDIR_manual_PM
_symmetry_space_group_name_H-M	'P1'
_cell_length_a	18.662600
_cell_length_b	18.662600
_cell_length_c	18.662600
_cell_angle_alpha	60.000000
_cell_angle_beta	60.000000
_cell_angle_gamma	60.000000
_symmetry_Int_Tables_number 1

loop_
_symmetry_equiv_pos_as_xyz
'x,y,z'

loop_
_atom_site_label
_atom_site_type_symbol
_atom_site_fract_x
_atom_site_fract_y
_atom_site_fract_z
Cu11	Cu1	0.500000	0.069860	0.930140
Cu21	Cu2	0.069860	0.500000	0.500000
Cu31	Cu3	0.930140	0.500000	0.500000
Cu41	Cu4	0.500000	0.930140	0.069860
Cu51	Cu5	0.500000	0.930140	0.500000
Cu61	Cu6	0.069860	0.500000	0.930140
Cu71	Cu7	0.930140	0.500000	0.069860
Cu81	Cu8	0.500000	0.069860	0.500000
Cu91	Cu9	0.500000	0.500000	0.069860
Cu101	Cu10	0.069860	0.930140	0.500000
Cu111	Cu11	0.930140	0.069860	0.500000
Cu121	Cu12	0.500000	0.500000	0.930140
H11	H1	0.468200	0.988200	0.771800
H21	H2	0.988200	0.468200	0.771800
H31	H3	0.771800	0.771800	0.468200
H41	H4	0.771800	0.771800	0.988200
H51	H5	0.468200	0.771800	0.771800
H61	H6	0.988200	0.771800	0.771800
H71	H7	0.771800	0.468200	0.988200
H81	H8	0.771800	0.988200	0.468200
H91	H9	0.468200	0.771800	0.988200
H101	H10	0.988200	0.771800	0.468200
H111	H11	0.771800	0.988200	0.771800
H121	H12	0.771800	0.468200	0.771800
H131	H13	0.011800	0.531800	0.228200
H141	H14	0.531800	0.011800	0.228200
H151	H15	0.228200	0.228200	0.531800
H161	H16	0.228200	0.228200	0.011800
H171	H17	0.228200	0.531800	0.228200
H181	H18	0.228200	0.011800	0.228200
H191	H19	0.531800	0.228200	0.011800
H201	H20	0.011800	0.228200	0.531800
H211	H21	0.228200	0.531800	0.011800
H221	H22	0.228200	0.011800	0.531800
H231	H23	0.011800	0.228200	0.228200
H241	H24	0.531800	0.228200	0.228200
C11	C1	0.467340	0.930860	0.800900
C21	C2	0.930860	0.467340	0.800900
C31	C3	0.800900	0.800900	0.467340
C41	C4	0.800900	0.800900	0.930860
C51	C5	0.467340	0.800900	0.800900
C61	C6	0.930860	0.800900	0.800900
C71	C7	0.800900	0.467340	0.930860
C81	C8	0.800900	0.930860	0.467340
C91	C9	0.467340	0.800900	0.930860
C101	C10	0.930860	0.800900	0.467340
C111	C11	0.800900	0.930860	0.800900
C121	C12	0.800900	0.467340	0.800900
C131	C13	0.069140	0.532660	0.199100
C141	C14	0.532660	0.069140	0.199100
C151	C15	0.199100	0.199100	0.532660
C161	C16	0.199100	0.199100	0.069140
C171	C17	0.199100	0.532660	0.199100
C181	C18	0.199100	0.069140	0.199100
C191	C19	0.532660	0.199100	0.069140
C201	C20	0.069140	0.199100	0.532660
C211	C21	0.199100	0.532660	0.069140
C221	C22	0.199100	0.069140	0.532660
C231	C23	0.069140	0.199100	0.199100
C241	C24	0.532660	0.199100	0.199100
C251	C25	0.466760	0.887400	0.887400
C261	C26	0.474280	0.931200	0.931200
C271	C27	0.887400	0.466760	0.758440
C281	C28	0.931200	0.474280	0.663320
C291	C29	0.887400	0.758440	0.466760
C301	C30	0.931200	0.663320	0.474280
C311	C31	0.758440	0.887400	0.887400
C321	C32	0.663320	0.931200	0.931200
C331	C33	0.466760	0.887400	0.758440
C341	C34	0.474280	0.931200	0.663320
C351	C35	0.887400	0.758440	0.887400
C361	C36	0.931200	0.663320	0.931200
C371	C37	0.887400	0.466760	0.887400
C381	C38	0.931200	0.474280	0.931200
C391	C39	0.758440	0.887400	0.466760
C401	C40	0.663320	0.931200	0.474280
C411	C41	0.466760	0.758440	0.887400
C421	C42	0.474280	0.663320	0.931200
C431	C43	0.887400	0.887400	0.466760
C441	C44	0.931200	0.931200	0.474280
C451	C45	0.887400	0.887400	0.758440
C461	C46	0.931200	0.931200	0.663320
C471	C47	0.758440	0.466760	0.887400
C481	C48	0.663320	0.474280	0.931200
C491	C49	0.112600	0.533240	0.112600
C501	C50	0.068800	0.525720	0.068800
C511	C51	0.533240	0.112600	0.241560
C521	C52	0.525720	0.068800	0.336680
C531	C53	0.241560	0.112600	0.533240
C541	C54	0.336680	0.068800	0.525720
C551	C55	0.112600	0.241560	0.112600
C561	C56	0.068800	0.336680	0.068800
C571	C57	0.112600	0.533240	0.241560
C581	C58	0.068800	0.525720	0.336680
C591	C59	0.241560	0.112600	0.112600
C601	C60	0.336680	0.068800	0.068800
C611	C61	0.533240	0.112600	0.112600
C621	C62	0.525720	0.068800	0.068800
C631	C63	0.112600	0.241560	0.533240
C641	C64	0.068800	0.336680	0.525720
C651	C65	0.241560	0.533240	0.112600
C661	C66	0.336680	0.525720	0.068800
C671	C67	0.112600	0.112600	0.533240
C681	C68	0.068800	0.068800	0.525720
C691	C69	0.112600	0.112600	0.241560
C701	C70	0.068800	0.068800	0.336680
C711	C71	0.533240	0.241560	0.112600
C721	C72	0.525720	0.336680	0.068800
O11	O1	0.478800	0.007560	0.887580
O21	O2	0.007560	0.478800	0.626060
O31	O3	0.887580	0.626060	0.478800
O41	O4	0.626060	0.887580	0.007560
O51	O5	0.478800	0.887580	0.626060
O61	O6	0.007560	0.626060	0.887580
O71	O7	0.887580	0.478800	0.007560
O81	O8	0.626060	0.007560	0.478800
O91	O9	0.478800	0.626060	0.007560
O101	O10	0.007560	0.887580	0.478800
O111	O11	0.887580	0.007560	0.626060
O121	O12	0.626060	0.478800	0.887580
O131	O13	0.992440	0.521200	0.112420
O141	O14	0.521200	0.992440	0.373940
O151	O15	0.373940	0.112420	0.521200
O161	O16	0.112420	0.373940	0.992440
O171	O17	0.112420	0.521200	0.373940
O181	O18	0.373940	0.992440	0.112420
O191	O19	0.521200	0.112420	0.992440
O201	O20	0.992440	0.373940	0.521200
O211	O21	0.373940	0.521200	0.992440
O221	O22	0.112420	0.992440	0.521200
O231	O23	0.992440	0.112420	0.373940
O241	O24	0.521200	0.373940	0.112420
O251	O25	0.521200	0.992440	0.112420
O261	O26	0.992440	0.521200	0.373940
O271	O27	0.112420	0.373940	0.521200
O281	O28	0.373940	0.112420	0.992440
O291	O29	0.521200	0.112420	0.373940
O301	O30	0.992440	0.373940	0.112420
O311	O31	0.112420	0.521200	0.992440
O321	O32	0.373940	0.992440	0.521200
O331	O33	0.521200	0.373940	0.992440
O341	O34	0.992440	0.112420	0.521200
O351	O35	0.112420	0.992440	0.373940
O361	O36	0.373940	0.521200	0.112420
O371	O37	0.007560	0.478800	0.887580
O381	O38	0.478800	0.007560	0.626060
O391	O39	0.626060	0.887580	0.478800
O401	O40	0.887580	0.626060	0.007560
O411	O41	0.887580	0.478800	0.626060
O421	O42	0.626060	0.007560	0.887580
O431	O43	0.478800	0.887580	0.007560
O441	O44	0.007560	0.626060	0.478800
O451	O45	0.626060	0.478800	0.007560
O461	O46	0.887580	0.007560	0.478800
O471	O47	0.007560	0.887580	0.626060
O481	O48	0.478800	0.626060	0.887580
