data_XADDEN_manual_PM
_symmetry_space_group_name_H-M	'P1'
_cell_length_a	18.651000
_cell_length_b	18.651000
_cell_length_c	18.651000
_cell_angle_alpha	60.000000
_cell_angle_beta	60.000000
_cell_angle_gamma	60.000000
_symmetry_Int_Tables_number 1

loop_
_symmetry_equiv_pos_as_xyz
'x,y,z'

loop_
_atom_site_label
_atom_site_type_symbol
_atom_site_fract_x
_atom_site_fract_y
_atom_site_fract_z
Cu11	Cu1	0.069860	0.500000	0.500000
Cu21	Cu2	0.500000	0.069860	0.930140
Cu31	Cu3	0.500000	0.930140	0.069860
Cu41	Cu4	0.930140	0.500000	0.500000
Cu51	Cu5	0.069860	0.500000	0.930140
Cu61	Cu6	0.500000	0.930140	0.500000
Cu71	Cu7	0.500000	0.069860	0.500000
Cu81	Cu8	0.930140	0.500000	0.069860
Cu91	Cu9	0.069860	0.930140	0.500000
Cu101	Cu10	0.500000	0.500000	0.069860
Cu111	Cu11	0.500000	0.500000	0.930140
Cu121	Cu12	0.930140	0.069860	0.500000
H11	H1	0.772600	0.467400	0.772600
H21	H2	0.467400	0.772600	0.987400
H31	H3	0.772600	0.987400	0.772600
H41	H4	0.987400	0.772600	0.467400
H51	H5	0.772600	0.772600	0.987400
H61	H6	0.467400	0.987400	0.772600
H71	H7	0.772600	0.772600	0.467400
H81	H8	0.987400	0.467400	0.772600
H91	H9	0.772600	0.987400	0.467400
H101	H10	0.467400	0.772600	0.772600
H111	H11	0.772600	0.467400	0.987400
H121	H12	0.987400	0.772600	0.772600
H131	H13	0.532600	0.227400	0.227400
H141	H14	0.227400	0.532600	0.012600
H151	H15	0.012600	0.227400	0.227400
H161	H16	0.227400	0.012600	0.532600
H171	H17	0.227400	0.227400	0.012600
H181	H18	0.012600	0.532600	0.227400
H191	H19	0.227400	0.227400	0.532600
H201	H20	0.532600	0.012600	0.227400
H211	H21	0.012600	0.227400	0.532600
H221	H22	0.227400	0.532600	0.227400
H231	H23	0.532600	0.227400	0.012600
H241	H24	0.227400	0.012600	0.227400
C11	C1	0.930900	0.474260	0.663940
C21	C2	0.887400	0.467120	0.758080
C31	C3	0.474260	0.930900	0.930900
C41	C4	0.467120	0.887400	0.887400
C51	C5	0.663940	0.930900	0.930900
C61	C6	0.758080	0.887400	0.887400
C71	C7	0.930900	0.663940	0.474260
C81	C8	0.887400	0.758080	0.467120
C91	C9	0.930900	0.663940	0.930900
C101	C10	0.887400	0.758080	0.887400
C111	C11	0.474260	0.930900	0.663940
C121	C12	0.467120	0.887400	0.758080
C131	C13	0.663940	0.930900	0.474260
C141	C14	0.758080	0.887400	0.467120
C151	C15	0.930900	0.474260	0.930900
C161	C16	0.887400	0.467120	0.887400
C171	C17	0.930900	0.930900	0.474260
C181	C18	0.887400	0.887400	0.467120
C191	C19	0.474260	0.663940	0.930900
C201	C20	0.467120	0.758080	0.887400
C211	C21	0.663940	0.474260	0.930900
C221	C22	0.758080	0.467120	0.887400
C231	C23	0.930900	0.930900	0.663940
C241	C24	0.887400	0.887400	0.758080
C251	C25	0.525740	0.069100	0.336060
C261	C26	0.532880	0.112600	0.241920
C271	C27	0.069100	0.525740	0.069100
C281	C28	0.112600	0.532880	0.112600
C291	C29	0.069100	0.336060	0.069100
C301	C30	0.112600	0.241920	0.112600
C311	C31	0.336060	0.069100	0.525740
C321	C32	0.241920	0.112600	0.532880
C331	C33	0.336060	0.069100	0.069100
C341	C34	0.241920	0.112600	0.112600
C351	C35	0.069100	0.525740	0.336060
C361	C36	0.112600	0.532880	0.241920
C371	C37	0.069100	0.336060	0.525740
C381	C38	0.112600	0.241920	0.532880
C391	C39	0.525740	0.069100	0.069100
C401	C40	0.532880	0.112600	0.112600
C411	C41	0.069100	0.069100	0.525740
C421	C42	0.112600	0.112600	0.532880
C431	C43	0.336060	0.525740	0.069100
C441	C44	0.241920	0.532880	0.112600
C451	C45	0.525740	0.336060	0.069100
C461	C46	0.532880	0.241920	0.112600
C471	C47	0.069100	0.069100	0.336060
C481	C48	0.112600	0.112600	0.241920
C491	C49	0.801500	0.467220	0.801500
C501	C50	0.467220	0.801500	0.929780
C511	C51	0.801500	0.929780	0.801500
C521	C52	0.929780	0.801500	0.467220
C531	C53	0.801500	0.801500	0.929780
C541	C54	0.467220	0.929780	0.801500
C551	C55	0.801500	0.801500	0.467220
C561	C56	0.929780	0.467220	0.801500
C571	C57	0.801500	0.929780	0.467220
C581	C58	0.467220	0.801500	0.801500
C591	C59	0.801500	0.467220	0.929780
C601	C60	0.929780	0.801500	0.801500
C611	C61	0.532780	0.198500	0.198500
C621	C62	0.198500	0.532780	0.070220
C631	C63	0.070220	0.198500	0.198500
C641	C64	0.198500	0.070220	0.532780
C651	C65	0.198500	0.198500	0.070220
C661	C66	0.070220	0.532780	0.198500
C671	C67	0.198500	0.198500	0.532780
C681	C68	0.532780	0.070220	0.198500
C691	C69	0.070220	0.198500	0.532780
C701	C70	0.198500	0.532780	0.198500
C711	C71	0.532780	0.198500	0.070220
C721	C72	0.198500	0.070220	0.198500
O11	O1	0.007400	0.478680	0.626460
O21	O2	0.478680	0.007400	0.887460
O31	O3	0.626460	0.887460	0.007400
O41	O4	0.887460	0.626460	0.478680
O51	O5	0.007400	0.626460	0.887460
O61	O6	0.478680	0.887460	0.626460
O71	O7	0.626460	0.007400	0.478680
O81	O8	0.887460	0.478680	0.007400
O91	O9	0.007400	0.887460	0.478680
O101	O10	0.478680	0.626460	0.007400
O111	O11	0.626460	0.478680	0.887460
O121	O12	0.887460	0.007400	0.626460
O131	O13	0.521320	0.992600	0.373540
O141	O14	0.992600	0.521320	0.112540
O151	O15	0.112540	0.373540	0.992600
O161	O16	0.373540	0.112540	0.521320
O171	O17	0.373540	0.992600	0.112540
O181	O18	0.112540	0.521320	0.373540
O191	O19	0.992600	0.373540	0.521320
O201	O20	0.521320	0.112540	0.992600
O211	O21	0.112540	0.992600	0.521320
O221	O22	0.373540	0.521320	0.992600
O231	O23	0.521320	0.373540	0.112540
O241	O24	0.992600	0.112540	0.373540
O251	O25	0.992600	0.521320	0.373540
O261	O26	0.521320	0.992600	0.112540
O271	O27	0.373540	0.112540	0.992600
O281	O28	0.112540	0.373540	0.521320
O291	O29	0.992600	0.373540	0.112540
O301	O30	0.521320	0.112540	0.373540
O311	O31	0.373540	0.992600	0.521320
O321	O32	0.112540	0.521320	0.992600
O331	O33	0.992600	0.112540	0.521320
O341	O34	0.521320	0.373540	0.992600
O351	O35	0.373540	0.521320	0.112540
O361	O36	0.112540	0.992600	0.373540
O371	O37	0.478680	0.007400	0.626460
O381	O38	0.007400	0.478680	0.887460
O391	O39	0.887460	0.626460	0.007400
O401	O40	0.626460	0.887460	0.478680
O411	O41	0.626460	0.007400	0.887460
O421	O42	0.887460	0.478680	0.626460
O431	O43	0.007400	0.626460	0.478680
O441	O44	0.478680	0.887460	0.007400
O451	O45	0.887460	0.007400	0.478680
O461	O46	0.626460	0.478680	0.007400
O471	O47	0.478680	0.626460	0.887460
O481	O48	0.007400	0.887460	0.626460
