data_XAFBEN_clean_PM
_symmetry_space_group_name_H-M	'P1'
_cell_length_a	10.706800
_cell_length_b	17.729400
_cell_length_c	13.243500
_cell_angle_alpha	90.000000
_cell_angle_beta	104.446000
_cell_angle_gamma	90.000000
_symmetry_Int_Tables_number 1

loop_
_symmetry_equiv_pos_as_xyz
'x,y,z'

loop_
_atom_site_label
_atom_site_type_symbol
_atom_site_fract_x
_atom_site_fract_y
_atom_site_fract_z
C11	C1	0.743300	0.051300	0.397100
C21	C2	0.876500	0.026100	0.451300
C31	C3	0.980200	0.042300	0.410100
H11	H1	0.967600	0.071200	0.349900
C41	C4	0.897600	0.984100	0.542300
H21	H2	0.829200	0.973600	0.571700
C51	C5	0.602900	0.151700	0.099700
C61	C6	0.675400	0.203800	0.046200
C71	C7	0.701800	0.276900	0.081100
H31	H3	0.669500	0.294800	0.135500
C81	C8	0.723700	0.176300	0.964400
H41	H4	0.706100	0.127100	0.940800
O11	O1	0.728500	0.094100	0.320100
O21	O2	0.650400	0.028100	0.428900
O31	O3	0.543700	0.179900	0.163900
O41	O4	0.601900	0.082300	0.082200
C91	C9	0.243300	0.551300	0.397100
C101	C10	0.376500	0.526100	0.451300
C111	C11	0.480200	0.542300	0.410100
H51	H5	0.467600	0.571200	0.349900
C121	C12	0.397600	0.484100	0.542300
H61	H6	0.329200	0.473600	0.571700
C131	C13	0.102900	0.651700	0.099700
C141	C14	0.175400	0.703800	0.046200
C151	C15	0.201800	0.776900	0.081100
H71	H7	0.169500	0.794800	0.135500
C161	C16	0.223700	0.676300	0.964400
H81	H8	0.206100	0.627100	0.940800
O51	O5	0.228500	0.594100	0.320100
O61	O6	0.150400	0.528100	0.428900
O71	O7	0.043700	0.679900	0.163900
O81	O8	0.101900	0.582300	0.082200
C171	C17	0.256700	0.051300	0.102900
C181	C18	0.123500	0.026100	0.048700
C191	C19	0.019800	0.042300	0.089900
H91	H9	0.032400	0.071200	0.150100
C201	C20	0.102400	0.984100	0.957700
H101	H10	0.170800	0.973600	0.928300
C211	C21	0.397100	0.151700	0.400300
C221	C22	0.324600	0.203800	0.453800
C231	C23	0.298200	0.276900	0.418900
H111	H11	0.330500	0.294800	0.364500
C241	C24	0.276300	0.176300	0.535600
H121	H12	0.293900	0.127100	0.559200
O91	O9	0.271500	0.094100	0.179900
O101	O10	0.349600	0.028100	0.071100
O111	O11	0.456300	0.179900	0.336100
O121	O12	0.398100	0.082300	0.417800
C251	C25	0.756700	0.551300	0.102900
C261	C26	0.623500	0.526100	0.048700
C271	C27	0.519800	0.542300	0.089900
H131	H13	0.532400	0.571200	0.150100
C281	C28	0.602400	0.484100	0.957700
H141	H14	0.670800	0.473600	0.928300
C291	C29	0.897100	0.651700	0.400300
C301	C30	0.824600	0.703800	0.453800
C311	C31	0.798200	0.776900	0.418900
H151	H15	0.830500	0.794800	0.364500
C321	C32	0.776300	0.676300	0.535600
H161	H16	0.793900	0.627100	0.559200
O131	O13	0.771500	0.594100	0.179900
O141	O14	0.849600	0.528100	0.071100
O151	O15	0.956300	0.679900	0.336100
O161	O16	0.898100	0.582300	0.417800
C331	C33	0.256700	0.948700	0.602900
C341	C34	0.123500	0.973900	0.548700
C351	C35	0.019800	0.957700	0.589900
H171	H17	0.032400	0.928800	0.650100
C361	C36	0.102400	0.015900	0.457700
H181	H18	0.170800	0.026400	0.428300
C371	C37	0.397100	0.848300	0.900300
C381	C38	0.324600	0.796200	0.953800
C391	C39	0.298200	0.723100	0.918900
H191	H19	0.330500	0.705200	0.864500
C401	C40	0.276300	0.823700	0.035600
H201	H20	0.293900	0.872900	0.059200
O171	O17	0.271500	0.905900	0.679900
O181	O18	0.349600	0.971900	0.571100
O191	O19	0.456300	0.820100	0.836100
O201	O20	0.398100	0.917700	0.917800
C411	C41	0.756700	0.448700	0.602900
C421	C42	0.623500	0.473900	0.548700
C431	C43	0.519800	0.457700	0.589900
H211	H21	0.532400	0.428800	0.650100
C441	C44	0.602400	0.515900	0.457700
H221	H22	0.670800	0.526400	0.428300
C451	C45	0.897100	0.348300	0.900300
C461	C46	0.824600	0.296200	0.953800
C471	C47	0.798200	0.223100	0.918900
H231	H23	0.830500	0.205200	0.864500
C481	C48	0.776300	0.323700	0.035600
H241	H24	0.793900	0.372900	0.059200
O211	O21	0.771500	0.405900	0.679900
O221	O22	0.849600	0.471900	0.571100
O231	O23	0.956300	0.320100	0.836100
O241	O24	0.898100	0.417700	0.917800
C491	C49	0.743300	0.948700	0.897100
C501	C50	0.876500	0.973900	0.951300
C511	C51	0.980200	0.957700	0.910100
H251	H25	0.967600	0.928800	0.849900
C521	C52	0.897600	0.015900	0.042300
H261	H26	0.829200	0.026400	0.071700
C531	C53	0.602900	0.848300	0.599700
C541	C54	0.675400	0.796200	0.546200
C551	C55	0.701800	0.723100	0.581100
H271	H27	0.669500	0.705200	0.635500
C561	C56	0.723700	0.823700	0.464400
H281	H28	0.706100	0.872900	0.440800
O251	O25	0.728500	0.905900	0.820100
O261	O26	0.650400	0.971900	0.928900
O271	O27	0.543700	0.820100	0.663900
O281	O28	0.601900	0.917700	0.582200
C571	C57	0.243300	0.448700	0.897100
C581	C58	0.376500	0.473900	0.951300
C591	C59	0.480200	0.457700	0.910100
H291	H29	0.467600	0.428800	0.849900
C601	C60	0.397600	0.515900	0.042300
H301	H30	0.329200	0.526400	0.071700
C611	C61	0.102900	0.348300	0.599700
C621	C62	0.175400	0.296200	0.546200
C631	C63	0.201800	0.223100	0.581100
H311	H31	0.169500	0.205200	0.635500
C641	C64	0.223700	0.323700	0.464400
H321	H32	0.206100	0.372900	0.440800
O291	O29	0.228500	0.405900	0.820100
O301	O30	0.150400	0.471900	0.928900
O311	O31	0.043700	0.320100	0.663900
O321	O32	0.101900	0.417700	0.582200
Bi11	Bi1	0.500000	0.075560	0.250000
Bi21	Bi2	0.000000	0.575560	0.250000
Bi31	Bi3	0.500000	0.924440	0.750000
Bi41	Bi4	0.000000	0.424440	0.750000
