data_XAFFAN_clean_PM
_symmetry_space_group_name_H-M	'P1'
_cell_length_a	17.178000
_cell_length_b	23.065300
_cell_length_c	23.065300
_cell_angle_alpha	60.826900
_cell_angle_beta	68.137700
_cell_angle_gamma	68.137700
_symmetry_Int_Tables_number 1

loop_
_symmetry_equiv_pos_as_xyz
'x,y,z'

loop_
_atom_site_label
_atom_site_type_symbol
_atom_site_fract_x
_atom_site_fract_y
_atom_site_fract_z
Zn11	Zn1	0.028230	0.530030	0.530030
Zn21	Zn2	0.588290	0.969970	0.969960
Zn31	Zn3	0.411710	0.030030	0.030040
Zn41	Zn4	0.971770	0.469970	0.469970
H11	H1	0.770000	0.389700	0.646500
H21	H2	0.667200	0.353500	0.746100
H31	H3	0.755600	0.423700	0.831300
H41	H4	0.852700	0.465500	0.729900
H51	H5	0.616600	0.325000	0.990600
H61	H6	0.546500	0.389000	0.055000
H71	H7	0.306200	0.110300	0.853500
H81	H8	0.266800	0.146500	0.753900
H91	H9	0.510600	0.076300	0.668700
H101	H10	0.548100	0.034500	0.770100
H111	H11	0.432200	0.175000	0.509400
H121	H12	0.490500	0.111000	0.445000
H131	H13	0.693800	0.146500	0.889700
H141	H14	0.733200	0.246100	0.853500
H151	H15	0.489400	0.331300	0.923700
H161	H16	0.451900	0.229900	0.965500
H171	H17	0.567800	0.490600	0.825000
H181	H18	0.509500	0.555000	0.889000
H191	H19	0.230000	0.353500	0.610300
H201	H20	0.332800	0.253900	0.646500
H211	H21	0.244400	0.168700	0.576300
H221	H22	0.147300	0.270100	0.534500
H231	H23	0.383400	0.009400	0.675000
H241	H24	0.453500	0.945000	0.611000
H251	H25	0.230000	0.610300	0.353500
H261	H26	0.332800	0.646500	0.253900
H271	H27	0.244400	0.576300	0.168700
H281	H28	0.147300	0.534500	0.270100
H291	H29	0.383400	0.675000	0.009400
H301	H30	0.453500	0.611000	0.945000
H311	H31	0.693800	0.889700	0.146500
H321	H32	0.733200	0.853500	0.246100
H331	H33	0.489400	0.923700	0.331300
H341	H34	0.451900	0.965500	0.229900
H351	H35	0.567800	0.825000	0.490600
H361	H36	0.509500	0.889000	0.555000
H371	H37	0.306200	0.853500	0.110300
H381	H38	0.266800	0.753900	0.146500
H391	H39	0.510600	0.668700	0.076300
H401	H40	0.548100	0.770100	0.034500
H411	H41	0.432200	0.509400	0.175000
H421	H42	0.490500	0.445000	0.111000
H431	H43	0.770000	0.646500	0.389700
H441	H44	0.667200	0.746100	0.353500
H451	H45	0.755600	0.831300	0.423700
H461	H46	0.852700	0.729900	0.465500
H471	H47	0.616600	0.990600	0.325000
H481	H48	0.546500	0.055000	0.389000
C11	C1	0.887700	0.456590	0.612210
C21	C2	0.766690	0.397300	0.683520
C31	C3	0.705590	0.374860	0.743440
C41	C4	0.757460	0.417340	0.793880
C51	C5	0.816750	0.441670	0.733210
C61	C6	0.701230	0.384140	0.800040
C71	C7	0.593180	0.371500	0.969540
C81	C8	0.552320	0.410590	0.007970
C91	C9	0.823280	0.431000	0.677580
C101	C10	0.456500	0.043410	0.887790
C111	C11	0.347510	0.102700	0.816480
C121	C12	0.323890	0.125140	0.756560
C131	C13	0.468680	0.082660	0.706120
C141	C14	0.491630	0.058330	0.766790
C151	C15	0.385410	0.115860	0.699960
C161	C16	0.434220	0.128500	0.530460
C171	C17	0.470880	0.089410	0.492030
C181	C18	0.431860	0.069000	0.822420
C191	C19	0.543500	0.112210	0.956590
C201	C20	0.652490	0.183520	0.897300
C211	C21	0.676110	0.243440	0.874860
C221	C22	0.531320	0.293880	0.917340
C231	C23	0.508370	0.233210	0.941670
C241	C24	0.614590	0.300040	0.884140
C251	C25	0.565780	0.469540	0.871500
C261	C26	0.529120	0.507970	0.910590
C271	C27	0.568140	0.177580	0.931000
C281	C28	0.112300	0.387790	0.543410
C291	C29	0.233310	0.316480	0.602700
C301	C30	0.294410	0.256560	0.625140
C311	C31	0.242540	0.206120	0.582660
C321	C32	0.183250	0.266790	0.558330
C331	C33	0.298770	0.199960	0.615860
C341	C34	0.406820	0.030460	0.628500
C351	C35	0.447680	0.992030	0.589410
C361	C36	0.176720	0.322420	0.569000
C371	C37	0.112300	0.543410	0.387790
C381	C38	0.233310	0.602700	0.316480
C391	C39	0.294410	0.625140	0.256560
C401	C40	0.242540	0.582660	0.206120
C411	C41	0.183250	0.558330	0.266790
C421	C42	0.298770	0.615860	0.199960
C431	C43	0.406820	0.628500	0.030460
C441	C44	0.447680	0.589410	0.992030
C451	C45	0.176720	0.569000	0.322420
C461	C46	0.543500	0.956590	0.112210
C471	C47	0.652490	0.897300	0.183520
C481	C48	0.676110	0.874860	0.243440
C491	C49	0.531320	0.917340	0.293880
C501	C50	0.508370	0.941670	0.233210
C511	C51	0.614590	0.884140	0.300040
C521	C52	0.565780	0.871500	0.469540
C531	C53	0.529120	0.910590	0.507970
C541	C54	0.568140	0.931000	0.177580
C551	C55	0.456500	0.887790	0.043410
C561	C56	0.347510	0.816480	0.102700
C571	C57	0.323890	0.756560	0.125140
C581	C58	0.468680	0.706120	0.082660
C591	C59	0.491630	0.766790	0.058330
C601	C60	0.385410	0.699960	0.115860
C611	C61	0.434220	0.530460	0.128500
C621	C62	0.470880	0.492030	0.089410
C631	C63	0.431860	0.822420	0.069000
C641	C64	0.887700	0.612210	0.456590
C651	C65	0.766690	0.683520	0.397300
C661	C66	0.705590	0.743440	0.374860
C671	C67	0.757460	0.793880	0.417340
C681	C68	0.816750	0.733210	0.441670
C691	C69	0.701230	0.800040	0.384140
C701	C70	0.593180	0.969540	0.371500
C711	C71	0.552320	0.007970	0.410590
C721	C72	0.823280	0.677580	0.431000
C731	C73	0.598720	0.401280	0.901280
C741	C74	0.520770	0.479230	0.979230
C751	C75	0.401280	0.098720	0.598720
C761	C76	0.479230	0.020770	0.520770
C771	C77	0.401280	0.598720	0.098720
C781	C78	0.479230	0.520770	0.020770
C791	C79	0.598720	0.901280	0.401280
C801	C80	0.520770	0.979230	0.479230
N11	N1	0.638860	0.361140	0.861140
N21	N2	0.361140	0.138860	0.638860
N31	N3	0.361140	0.638860	0.138860
N41	N4	0.638860	0.861140	0.361140
O11	O1	0.934300	0.488900	0.610020
O21	O2	0.891140	0.442930	0.564230
O31	O3	0.533220	0.011100	0.889980
O41	O4	0.398300	0.057070	0.935770
O51	O5	0.466780	0.110020	0.988900
O61	O6	0.601700	0.064230	0.942930
O71	O7	0.065700	0.389980	0.511100
O81	O8	0.108860	0.435770	0.557070
O91	O9	0.065700	0.511100	0.389980
O101	O10	0.108860	0.557070	0.435770
O111	O11	0.466780	0.988900	0.110020
O121	O12	0.601700	0.942930	0.064230
O131	O13	0.533220	0.889980	0.011100
O141	O14	0.398300	0.935770	0.057070
O151	O15	0.934300	0.610020	0.488900
O161	O16	0.891140	0.564230	0.442930
