data_XAFFUH_clean_PM
_symmetry_space_group_name_H-M	'P1'
_cell_length_a	24.087000
_cell_length_b	36.329500
_cell_length_c	36.329500
_cell_angle_alpha	90.000000
_cell_angle_beta	90.000000
_cell_angle_gamma	90.000000
_symmetry_Int_Tables_number 1

loop_
_symmetry_equiv_pos_as_xyz
'x,y,z'

loop_
_atom_site_label
_atom_site_type_symbol
_atom_site_fract_x
_atom_site_fract_y
_atom_site_fract_z
Cu11	Cu1	0.500000	0.187130	0.506530
Cu21	Cu2	0.500000	0.812870	0.493470
Cu31	Cu3	0.500000	0.493470	0.187130
Cu41	Cu4	0.500000	0.506530	0.812870
Cu51	Cu5	0.000000	0.312870	0.006530
Cu61	Cu6	0.000000	0.687130	0.993470
Cu71	Cu7	0.000000	0.006530	0.687130
Cu81	Cu8	0.000000	0.993470	0.312870
Cu91	Cu9	0.000000	0.384930	0.011180
Cu101	Cu10	0.000000	0.615070	0.988820
Cu111	Cu11	0.000000	0.988820	0.384930
Cu121	Cu12	0.000000	0.011180	0.615070
Cu131	Cu13	0.500000	0.115070	0.511180
Cu141	Cu14	0.500000	0.884930	0.488820
Cu151	Cu15	0.500000	0.511180	0.884930
Cu161	Cu16	0.500000	0.488820	0.115070
H11	H1	0.330200	0.230900	0.746500
H21	H2	0.371300	0.103000	0.592900
H31	H3	0.198000	0.410000	0.886300
H41	H4	0.127900	0.409300	0.929200
H51	H5	0.372900	0.212600	0.587000
H61	H6	0.170300	0.287700	0.768200
H71	H7	0.128600	0.299500	0.927800
H81	H8	0.301000	0.106200	0.635900
H91	H9	0.173000	0.335000	0.811500
H101	H10	0.329700	0.186900	0.703100
H111	H11	0.199000	0.300500	0.884600
H121	H12	0.301700	0.215200	0.628700
H131	H13	0.330200	0.769100	0.253500
H141	H14	0.371300	0.897000	0.407100
H151	H15	0.198000	0.590000	0.113700
H161	H16	0.127900	0.590700	0.070800
H171	H17	0.372900	0.787400	0.413000
H181	H18	0.170300	0.712300	0.231800
H191	H19	0.128600	0.700500	0.072200
H201	H20	0.301000	0.893800	0.364100
H211	H21	0.173000	0.665000	0.188500
H221	H22	0.329700	0.813100	0.296900
H231	H23	0.199000	0.699500	0.115400
H241	H24	0.301700	0.784800	0.371300
H251	H25	0.330200	0.253500	0.230900
H261	H26	0.371300	0.407100	0.103000
H271	H27	0.198000	0.113700	0.410000
H281	H28	0.127900	0.070800	0.409300
H291	H29	0.372900	0.413000	0.212600
H301	H30	0.170300	0.231800	0.287700
H311	H31	0.128600	0.072200	0.299500
H321	H32	0.301000	0.364100	0.106200
H331	H33	0.173000	0.188500	0.335000
H341	H34	0.329700	0.296900	0.186900
H351	H35	0.199000	0.115400	0.300500
H361	H36	0.301700	0.371300	0.215200
H371	H37	0.330200	0.746500	0.769100
H381	H38	0.371300	0.592900	0.897000
H391	H39	0.198000	0.886300	0.590000
H401	H40	0.127900	0.929200	0.590700
H411	H41	0.372900	0.587000	0.787400
H421	H42	0.170300	0.768200	0.712300
H431	H43	0.128600	0.927800	0.700500
H441	H44	0.301000	0.635900	0.893800
H451	H45	0.173000	0.811500	0.665000
H461	H46	0.329700	0.703100	0.813100
H471	H47	0.199000	0.884600	0.699500
H481	H48	0.301700	0.628700	0.784800
H491	H49	0.169800	0.269100	0.246500
H501	H50	0.128700	0.397000	0.092900
H511	H51	0.302000	0.090000	0.386300
H521	H52	0.372100	0.090700	0.429200
H531	H53	0.127100	0.287400	0.087000
H541	H54	0.329700	0.212300	0.268200
H551	H55	0.371400	0.200500	0.427800
H561	H56	0.199000	0.393800	0.135900
H571	H57	0.327000	0.165000	0.311500
H581	H58	0.170300	0.313100	0.203100
H591	H59	0.301000	0.199500	0.384600
H601	H60	0.198300	0.284800	0.128700
H611	H61	0.169800	0.730900	0.753500
H621	H62	0.128700	0.603000	0.907100
H631	H63	0.302000	0.910000	0.613700
H641	H64	0.372100	0.909300	0.570800
H651	H65	0.127100	0.712600	0.913000
H661	H66	0.329700	0.787700	0.731800
H671	H67	0.371400	0.799500	0.572200
H681	H68	0.199000	0.606200	0.864100
H691	H69	0.327000	0.835000	0.688500
H701	H70	0.170300	0.686900	0.796900
H711	H71	0.301000	0.800500	0.615400
H721	H72	0.198300	0.715200	0.871300
H731	H73	0.169800	0.246500	0.730900
H741	H74	0.128700	0.092900	0.603000
H751	H75	0.302000	0.386300	0.910000
H761	H76	0.372100	0.429200	0.909300
H771	H77	0.127100	0.087000	0.712600
H781	H78	0.329700	0.268200	0.787700
H791	H79	0.371400	0.427800	0.799500
H801	H80	0.199000	0.135900	0.606200
H811	H81	0.327000	0.311500	0.835000
H821	H82	0.170300	0.203100	0.686900
H831	H83	0.301000	0.384600	0.800500
H841	H84	0.198300	0.128700	0.715200
H851	H85	0.169800	0.753500	0.269100
H861	H86	0.128700	0.907100	0.397000
H871	H87	0.302000	0.613700	0.090000
H881	H88	0.372100	0.570800	0.090700
H891	H89	0.127100	0.913000	0.287400
H901	H90	0.329700	0.731800	0.212300
H911	H91	0.371400	0.572200	0.200500
H921	H92	0.199000	0.864100	0.393800
H931	H93	0.327000	0.688500	0.165000
H941	H94	0.170300	0.796900	0.313100
H951	H95	0.301000	0.615400	0.199500
H961	H96	0.198300	0.871300	0.284800
H971	H97	0.669800	0.769100	0.253500
H981	H98	0.628700	0.897000	0.407100
H991	H99	0.802000	0.590000	0.113700
H1001	H100	0.872100	0.590700	0.070800
H1011	H101	0.627100	0.787400	0.413000
H1021	H102	0.829700	0.712300	0.231800
H1031	H103	0.871400	0.700500	0.072200
H1041	H104	0.699000	0.893800	0.364100
H1051	H105	0.827000	0.665000	0.188500
H1061	H106	0.670300	0.813100	0.296900
H1071	H107	0.801000	0.699500	0.115400
H1081	H108	0.698300	0.784800	0.371300
H1091	H109	0.669800	0.230900	0.746500
H1101	H110	0.628700	0.103000	0.592900
H1111	H111	0.802000	0.410000	0.886300
H1121	H112	0.872100	0.409300	0.929200
H1131	H113	0.627100	0.212600	0.587000
H1141	H114	0.829700	0.287700	0.768200
H1151	H115	0.871400	0.299500	0.927800
H1161	H116	0.699000	0.106200	0.635900
H1171	H117	0.827000	0.335000	0.811500
H1181	H118	0.670300	0.186900	0.703100
H1191	H119	0.801000	0.300500	0.884600
H1201	H120	0.698300	0.215200	0.628700
H1211	H121	0.669800	0.746500	0.769100
H1221	H122	0.628700	0.592900	0.897000
H1231	H123	0.802000	0.886300	0.590000
H1241	H124	0.872100	0.929200	0.590700
H1251	H125	0.627100	0.587000	0.787400
H1261	H126	0.829700	0.768200	0.712300
H1271	H127	0.871400	0.927800	0.700500
H1281	H128	0.699000	0.635900	0.893800
H1291	H129	0.827000	0.811500	0.665000
H1301	H130	0.670300	0.703100	0.813100
H1311	H131	0.801000	0.884600	0.699500
H1321	H132	0.698300	0.628700	0.784800
H1331	H133	0.669800	0.253500	0.230900
H1341	H134	0.628700	0.407100	0.103000
H1351	H135	0.802000	0.113700	0.410000
H1361	H136	0.872100	0.070800	0.409300
H1371	H137	0.627100	0.413000	0.212600
H1381	H138	0.829700	0.231800	0.287700
H1391	H139	0.871400	0.072200	0.299500
H1401	H140	0.699000	0.364100	0.106200
H1411	H141	0.827000	0.188500	0.335000
H1421	H142	0.670300	0.296900	0.186900
H1431	H143	0.801000	0.115400	0.300500
H1441	H144	0.698300	0.371300	0.215200
H1451	H145	0.830200	0.730900	0.753500
H1461	H146	0.871300	0.603000	0.907100
H1471	H147	0.698000	0.910000	0.613700
H1481	H148	0.627900	0.909300	0.570800
H1491	H149	0.872900	0.712600	0.913000
H1501	H150	0.670300	0.787700	0.731800
H1511	H151	0.628600	0.799500	0.572200
H1521	H152	0.801000	0.606200	0.864100
H1531	H153	0.673000	0.835000	0.688500
H1541	H154	0.829700	0.686900	0.796900
H1551	H155	0.699000	0.800500	0.615400
H1561	H156	0.801700	0.715200	0.871300
H1571	H157	0.830200	0.269100	0.246500
H1581	H158	0.871300	0.397000	0.092900
H1591	H159	0.698000	0.090000	0.386300
H1601	H160	0.627900	0.090700	0.429200
H1611	H161	0.872900	0.287400	0.087000
H1621	H162	0.670300	0.212300	0.268200
H1631	H163	0.628600	0.200500	0.427800
H1641	H164	0.801000	0.393800	0.135900
H1651	H165	0.673000	0.165000	0.311500
H1661	H166	0.829700	0.313100	0.203100
H1671	H167	0.699000	0.199500	0.384600
H1681	H168	0.801700	0.284800	0.128700
H1691	H169	0.830200	0.753500	0.269100
H1701	H170	0.871300	0.907100	0.397000
H1711	H171	0.698000	0.613700	0.090000
H1721	H172	0.627900	0.570800	0.090700
H1731	H173	0.872900	0.913000	0.287400
H1741	H174	0.670300	0.731800	0.212300
H1751	H175	0.628600	0.572200	0.200500
H1761	H176	0.801000	0.864100	0.393800
H1771	H177	0.673000	0.688500	0.165000
H1781	H178	0.829700	0.796900	0.313100
H1791	H179	0.699000	0.615400	0.199500
H1801	H180	0.801700	0.871300	0.284800
H1811	H181	0.830200	0.246500	0.730900
H1821	H182	0.871300	0.092900	0.603000
H1831	H183	0.698000	0.386300	0.910000
H1841	H184	0.627900	0.429200	0.909300
H1851	H185	0.872900	0.087000	0.712600
H1861	H186	0.670300	0.268200	0.787700
H1871	H187	0.628600	0.427800	0.799500
H1881	H188	0.801000	0.135900	0.606200
H1891	H189	0.673000	0.311500	0.835000
H1901	H190	0.829700	0.203100	0.686900
H1911	H191	0.699000	0.384600	0.800500
H1921	H192	0.801700	0.128700	0.715200
C11	C1	0.296990	0.225420	0.734660
C21	C2	0.379880	0.157550	0.585380
C31	C3	0.294490	0.160420	0.636900
C41	C4	0.357770	0.125810	0.600210
C51	C5	0.205990	0.355560	0.881460
C61	C6	0.120760	0.354030	0.933130
C71	C7	0.184240	0.387640	0.894670
C81	C8	0.142120	0.387240	0.920350
C91	C9	0.358420	0.190900	0.596630
C101	C10	0.203180	0.292720	0.780670
C111	C11	0.142400	0.321910	0.919600
C121	C12	0.315350	0.127820	0.625950
C131	C13	0.204520	0.320780	0.807510
C141	C14	0.296830	0.199140	0.708570
C151	C15	0.184810	0.322540	0.893690
C161	C16	0.316100	0.192450	0.621730
C171	C17	0.424830	0.155380	0.557450
C181	C18	0.075520	0.353620	0.960500
C191	C19	0.296990	0.774580	0.265340
C201	C20	0.379880	0.842450	0.414620
C211	C21	0.294490	0.839580	0.363100
C221	C22	0.357770	0.874190	0.399790
C231	C23	0.205990	0.644440	0.118540
C241	C24	0.120760	0.645970	0.066870
C251	C25	0.184240	0.612360	0.105330
C261	C26	0.142120	0.612760	0.079650
C271	C27	0.358420	0.809100	0.403370
C281	C28	0.203180	0.707280	0.219330
C291	C29	0.142400	0.678090	0.080400
C301	C30	0.315350	0.872180	0.374050
C311	C31	0.204520	0.679220	0.192490
C321	C32	0.296830	0.800860	0.291430
C331	C33	0.184810	0.677460	0.106310
C341	C34	0.316100	0.807550	0.378270
C351	C35	0.424830	0.844620	0.442550
C361	C36	0.075520	0.646380	0.039500
C371	C37	0.296990	0.265340	0.225420
C381	C38	0.379880	0.414620	0.157550
C391	C39	0.294490	0.363100	0.160420
C401	C40	0.357770	0.399790	0.125810
C411	C41	0.205990	0.118540	0.355560
C421	C42	0.120760	0.066870	0.354030
C431	C43	0.184240	0.105330	0.387640
C441	C44	0.142120	0.079650	0.387240
C451	C45	0.358420	0.403370	0.190900
C461	C46	0.203180	0.219330	0.292720
C471	C47	0.142400	0.080400	0.321910
C481	C48	0.315350	0.374050	0.127820
C491	C49	0.204520	0.192490	0.320780
C501	C50	0.296830	0.291430	0.199140
C511	C51	0.184810	0.106310	0.322540
C521	C52	0.316100	0.378270	0.192450
C531	C53	0.424830	0.442550	0.155380
C541	C54	0.075520	0.039500	0.353620
C551	C55	0.296990	0.734660	0.774580
C561	C56	0.379880	0.585380	0.842450
C571	C57	0.294490	0.636900	0.839580
C581	C58	0.357770	0.600210	0.874190
C591	C59	0.205990	0.881460	0.644440
C601	C60	0.120760	0.933130	0.645970
C611	C61	0.184240	0.894670	0.612360
C621	C62	0.142120	0.920350	0.612760
C631	C63	0.358420	0.596630	0.809100
C641	C64	0.203180	0.780670	0.707280
C651	C65	0.142400	0.919600	0.678090
C661	C66	0.315350	0.625950	0.872180
C671	C67	0.204520	0.807510	0.679220
C681	C68	0.296830	0.708570	0.800860
C691	C69	0.184810	0.893690	0.677460
C701	C70	0.316100	0.621730	0.807550
C711	C71	0.424830	0.557450	0.844620
C721	C72	0.075520	0.960500	0.646380
C731	C73	0.203010	0.274580	0.234660
C741	C74	0.120120	0.342450	0.085380
C751	C75	0.205510	0.339580	0.136900
C761	C76	0.142230	0.374190	0.100210
C771	C77	0.294010	0.144440	0.381460
C781	C78	0.379240	0.145970	0.433130
C791	C79	0.315760	0.112360	0.394670
C801	C80	0.357880	0.112760	0.420350
C811	C81	0.141580	0.309100	0.096630
C821	C82	0.296820	0.207280	0.280670
C831	C83	0.357600	0.178090	0.419600
C841	C84	0.184650	0.372180	0.125950
C851	C85	0.295480	0.179220	0.307510
C861	C86	0.203170	0.300860	0.208570
C871	C87	0.315190	0.177460	0.393690
C881	C88	0.183900	0.307550	0.121730
C891	C89	0.075170	0.344620	0.057450
C901	C90	0.424480	0.146380	0.460500
C911	C91	0.203010	0.725420	0.765340
C921	C92	0.120120	0.657550	0.914620
C931	C93	0.205510	0.660420	0.863100
C941	C94	0.142230	0.625810	0.899790
C951	C95	0.294010	0.855560	0.618540
C961	C96	0.379240	0.854030	0.566870
C971	C97	0.315760	0.887640	0.605330
C981	C98	0.357880	0.887240	0.579650
C991	C99	0.141580	0.690900	0.903370
C1001	C100	0.296820	0.792720	0.719330
C1011	C101	0.357600	0.821910	0.580400
C1021	C102	0.184650	0.627820	0.874050
C1031	C103	0.295480	0.820780	0.692490
C1041	C104	0.203170	0.699140	0.791430
C1051	C105	0.315190	0.822540	0.606310
C1061	C106	0.183900	0.692450	0.878270
C1071	C107	0.075170	0.655380	0.942550
C1081	C108	0.424480	0.853620	0.539500
C1091	C109	0.203010	0.234660	0.725420
C1101	C110	0.120120	0.085380	0.657550
C1111	C111	0.205510	0.136900	0.660420
C1121	C112	0.142230	0.100210	0.625810
C1131	C113	0.294010	0.381460	0.855560
C1141	C114	0.379240	0.433130	0.854030
C1151	C115	0.315760	0.394670	0.887640
C1161	C116	0.357880	0.420350	0.887240
C1171	C117	0.141580	0.096630	0.690900
C1181	C118	0.296820	0.280670	0.792720
C1191	C119	0.357600	0.419600	0.821910
C1201	C120	0.184650	0.125950	0.627820
C1211	C121	0.295480	0.307510	0.820780
C1221	C122	0.203170	0.208570	0.699140
C1231	C123	0.315190	0.393690	0.822540
C1241	C124	0.183900	0.121730	0.692450
C1251	C125	0.075170	0.057450	0.655380
C1261	C126	0.424480	0.460500	0.853620
C1271	C127	0.203010	0.765340	0.274580
C1281	C128	0.120120	0.914620	0.342450
C1291	C129	0.205510	0.863100	0.339580
C1301	C130	0.142230	0.899790	0.374190
C1311	C131	0.294010	0.618540	0.144440
C1321	C132	0.379240	0.566870	0.145970
C1331	C133	0.315760	0.605330	0.112360
C1341	C134	0.357880	0.579650	0.112760
C1351	C135	0.141580	0.903370	0.309100
C1361	C136	0.296820	0.719330	0.207280
C1371	C137	0.357600	0.580400	0.178090
C1381	C138	0.184650	0.874050	0.372180
C1391	C139	0.295480	0.692490	0.179220
C1401	C140	0.203170	0.791430	0.300860
C1411	C141	0.315190	0.606310	0.177460
C1421	C142	0.183900	0.878270	0.307550
C1431	C143	0.075170	0.942550	0.344620
C1441	C144	0.424480	0.539500	0.146380
C1451	C145	0.703010	0.774580	0.265340
C1461	C146	0.620120	0.842450	0.414620
C1471	C147	0.705510	0.839580	0.363100
C1481	C148	0.642230	0.874190	0.399790
C1491	C149	0.794010	0.644440	0.118540
C1501	C150	0.879240	0.645970	0.066870
C1511	C151	0.815760	0.612360	0.105330
C1521	C152	0.857880	0.612760	0.079650
C1531	C153	0.641580	0.809100	0.403370
C1541	C154	0.796820	0.707280	0.219330
C1551	C155	0.857600	0.678090	0.080400
C1561	C156	0.684650	0.872180	0.374050
C1571	C157	0.795480	0.679220	0.192490
C1581	C158	0.703170	0.800860	0.291430
C1591	C159	0.815190	0.677460	0.106310
C1601	C160	0.683900	0.807550	0.378270
C1611	C161	0.575170	0.844620	0.442550
C1621	C162	0.924480	0.646380	0.039500
C1631	C163	0.703010	0.225420	0.734660
C1641	C164	0.620120	0.157550	0.585380
C1651	C165	0.705510	0.160420	0.636900
C1661	C166	0.642230	0.125810	0.600210
C1671	C167	0.794010	0.355560	0.881460
C1681	C168	0.879240	0.354030	0.933130
C1691	C169	0.815760	0.387640	0.894670
C1701	C170	0.857880	0.387240	0.920350
C1711	C171	0.641580	0.190900	0.596630
C1721	C172	0.796820	0.292720	0.780670
C1731	C173	0.857600	0.321910	0.919600
C1741	C174	0.684650	0.127820	0.625950
C1751	C175	0.795480	0.320780	0.807510
C1761	C176	0.703170	0.199140	0.708570
C1771	C177	0.815190	0.322540	0.893690
C1781	C178	0.683900	0.192450	0.621730
C1791	C179	0.575170	0.155380	0.557450
C1801	C180	0.924480	0.353620	0.960500
C1811	C181	0.703010	0.734660	0.774580
C1821	C182	0.620120	0.585380	0.842450
C1831	C183	0.705510	0.636900	0.839580
C1841	C184	0.642230	0.600210	0.874190
C1851	C185	0.794010	0.881460	0.644440
C1861	C186	0.879240	0.933130	0.645970
C1871	C187	0.815760	0.894670	0.612360
C1881	C188	0.857880	0.920350	0.612760
C1891	C189	0.641580	0.596630	0.809100
C1901	C190	0.796820	0.780670	0.707280
C1911	C191	0.857600	0.919600	0.678090
C1921	C192	0.684650	0.625950	0.872180
C1931	C193	0.795480	0.807510	0.679220
C1941	C194	0.703170	0.708570	0.800860
C1951	C195	0.815190	0.893690	0.677460
C1961	C196	0.683900	0.621730	0.807550
C1971	C197	0.575170	0.557450	0.844620
C1981	C198	0.924480	0.960500	0.646380
C1991	C199	0.703010	0.265340	0.225420
C2001	C200	0.620120	0.414620	0.157550
C2011	C201	0.705510	0.363100	0.160420
C2021	C202	0.642230	0.399790	0.125810
C2031	C203	0.794010	0.118540	0.355560
C2041	C204	0.879240	0.066870	0.354030
C2051	C205	0.815760	0.105330	0.387640
C2061	C206	0.857880	0.079650	0.387240
C2071	C207	0.641580	0.403370	0.190900
C2081	C208	0.796820	0.219330	0.292720
C2091	C209	0.857600	0.080400	0.321910
C2101	C210	0.684650	0.374050	0.127820
C2111	C211	0.795480	0.192490	0.320780
C2121	C212	0.703170	0.291430	0.199140
C2131	C213	0.815190	0.106310	0.322540
C2141	C214	0.683900	0.378270	0.192450
C2151	C215	0.575170	0.442550	0.155380
C2161	C216	0.924480	0.039500	0.353620
C2171	C217	0.796990	0.725420	0.765340
C2181	C218	0.879880	0.657550	0.914620
C2191	C219	0.794490	0.660420	0.863100
C2201	C220	0.857770	0.625810	0.899790
C2211	C221	0.705990	0.855560	0.618540
C2221	C222	0.620760	0.854030	0.566870
C2231	C223	0.684240	0.887640	0.605330
C2241	C224	0.642120	0.887240	0.579650
C2251	C225	0.858420	0.690900	0.903370
C2261	C226	0.703180	0.792720	0.719330
C2271	C227	0.642400	0.821910	0.580400
C2281	C228	0.815350	0.627820	0.874050
C2291	C229	0.704520	0.820780	0.692490
C2301	C230	0.796830	0.699140	0.791430
C2311	C231	0.684810	0.822540	0.606310
C2321	C232	0.816100	0.692450	0.878270
C2331	C233	0.924830	0.655380	0.942550
C2341	C234	0.575520	0.853620	0.539500
C2351	C235	0.796990	0.274580	0.234660
C2361	C236	0.879880	0.342450	0.085380
C2371	C237	0.794490	0.339580	0.136900
C2381	C238	0.857770	0.374190	0.100210
C2391	C239	0.705990	0.144440	0.381460
C2401	C240	0.620760	0.145970	0.433130
C2411	C241	0.684240	0.112360	0.394670
C2421	C242	0.642120	0.112760	0.420350
C2431	C243	0.858420	0.309100	0.096630
C2441	C244	0.703180	0.207280	0.280670
C2451	C245	0.642400	0.178090	0.419600
C2461	C246	0.815350	0.372180	0.125950
C2471	C247	0.704520	0.179220	0.307510
C2481	C248	0.796830	0.300860	0.208570
C2491	C249	0.684810	0.177460	0.393690
C2501	C250	0.816100	0.307550	0.121730
C2511	C251	0.924830	0.344620	0.057450
C2521	C252	0.575520	0.146380	0.460500
C2531	C253	0.796990	0.765340	0.274580
C2541	C254	0.879880	0.914620	0.342450
C2551	C255	0.794490	0.863100	0.339580
C2561	C256	0.857770	0.899790	0.374190
C2571	C257	0.705990	0.618540	0.144440
C2581	C258	0.620760	0.566870	0.145970
C2591	C259	0.684240	0.605330	0.112360
C2601	C260	0.642120	0.579650	0.112760
C2611	C261	0.858420	0.903370	0.309100
C2621	C262	0.703180	0.719330	0.207280
C2631	C263	0.642400	0.580400	0.178090
C2641	C264	0.815350	0.874050	0.372180
C2651	C265	0.704520	0.692490	0.179220
C2661	C266	0.796830	0.791430	0.300860
C2671	C267	0.684810	0.606310	0.177460
C2681	C268	0.816100	0.878270	0.307550
C2691	C269	0.924830	0.942550	0.344620
C2701	C270	0.575520	0.539500	0.146380
C2711	C271	0.796990	0.234660	0.725420
C2721	C272	0.879880	0.085380	0.657550
C2731	C273	0.794490	0.136900	0.660420
C2741	C274	0.857770	0.100210	0.625810
C2751	C275	0.705990	0.381460	0.855560
C2761	C276	0.620760	0.433130	0.854030
C2771	C277	0.684240	0.394670	0.887640
C2781	C278	0.642120	0.420350	0.887240
C2791	C279	0.858420	0.096630	0.690900
C2801	C280	0.703180	0.280670	0.792720
C2811	C281	0.642400	0.419600	0.821910
C2821	C282	0.815350	0.125950	0.627820
C2831	C283	0.704520	0.307510	0.820780
C2841	C284	0.796830	0.208570	0.699140
C2851	C285	0.684810	0.393690	0.822540
C2861	C286	0.816100	0.121730	0.692450
C2871	C287	0.924830	0.057450	0.655380
C2881	C288	0.575520	0.460500	0.853620
C2891	C289	0.250000	0.327270	0.827270
C2901	C290	0.250000	0.273030	0.773030
C2911	C291	0.250000	0.244570	0.744570
C2921	C292	0.250000	0.189980	0.689980
C2931	C293	0.250000	0.672730	0.172730
C2941	C294	0.250000	0.726970	0.226970
C2951	C295	0.250000	0.755430	0.255430
C2961	C296	0.250000	0.810020	0.310020
C2971	C297	0.250000	0.172730	0.327270
C2981	C298	0.250000	0.226970	0.273030
C2991	C299	0.250000	0.255430	0.244570
C3001	C300	0.250000	0.310020	0.189980
C3011	C301	0.250000	0.827270	0.672730
C3021	C302	0.250000	0.773030	0.726970
C3031	C303	0.250000	0.744570	0.755430
C3041	C304	0.250000	0.689980	0.810020
C3051	C305	0.750000	0.672730	0.172730
C3061	C306	0.750000	0.726970	0.226970
C3071	C307	0.750000	0.755430	0.255430
C3081	C308	0.750000	0.810020	0.310020
C3091	C309	0.750000	0.327270	0.827270
C3101	C310	0.750000	0.273030	0.773030
C3111	C311	0.750000	0.244570	0.744570
C3121	C312	0.750000	0.189980	0.689980
C3131	C313	0.750000	0.827270	0.672730
C3141	C314	0.750000	0.773030	0.726970
C3151	C315	0.750000	0.744570	0.755430
C3161	C316	0.750000	0.689980	0.810020
C3171	C317	0.750000	0.172730	0.327270
C3181	C318	0.750000	0.226970	0.273030
C3191	C319	0.750000	0.255430	0.244570
C3201	C320	0.750000	0.310020	0.189980
N11	N1	0.250000	0.355160	0.855160
N21	N2	0.250000	0.162490	0.662490
N31	N3	0.250000	0.644840	0.144840
N41	N4	0.250000	0.837510	0.337510
N51	N5	0.250000	0.144840	0.355160
N61	N6	0.250000	0.337510	0.162490
N71	N7	0.250000	0.855160	0.644840
N81	N8	0.250000	0.662490	0.837510
N91	N9	0.750000	0.644840	0.144840
N101	N10	0.750000	0.837510	0.337510
N111	N11	0.750000	0.355160	0.855160
N121	N12	0.750000	0.162490	0.662490
N131	N13	0.750000	0.855160	0.644840
N141	N14	0.750000	0.662490	0.837510
N151	N15	0.750000	0.144840	0.355160
N161	N16	0.750000	0.337510	0.162490
O11	O1	0.442410	0.185370	0.544700
O21	O2	0.057890	0.383140	0.973180
O31	O3	0.442020	0.124400	0.548160
O41	O4	0.057690	0.321970	0.969560
O51	O5	0.442410	0.814630	0.455300
O61	O6	0.057890	0.616860	0.026820
O71	O7	0.442020	0.875600	0.451840
O81	O8	0.057690	0.678030	0.030440
O91	O9	0.442410	0.455300	0.185370
O101	O10	0.057890	0.026820	0.383140
O111	O11	0.442020	0.451840	0.124400
O121	O12	0.057690	0.030440	0.321970
O131	O13	0.442410	0.544700	0.814630
O141	O14	0.057890	0.973180	0.616860
O151	O15	0.442020	0.548160	0.875600
O161	O16	0.057690	0.969560	0.678030
O171	O17	0.057590	0.314630	0.044700
O181	O18	0.442110	0.116860	0.473180
O191	O19	0.057980	0.375600	0.048160
O201	O20	0.442310	0.178030	0.469560
O211	O21	0.057590	0.685370	0.955300
O221	O22	0.442110	0.883140	0.526820
O231	O23	0.057980	0.624400	0.951840
O241	O24	0.442310	0.821970	0.530440
O251	O25	0.057590	0.044700	0.685370
O261	O26	0.442110	0.473180	0.883140
O271	O27	0.057980	0.048160	0.624400
O281	O28	0.442310	0.469560	0.821970
O291	O29	0.057590	0.955300	0.314630
O301	O30	0.442110	0.526820	0.116860
O311	O31	0.057980	0.951840	0.375600
O321	O32	0.442310	0.530440	0.178030
O331	O33	0.557590	0.814630	0.455300
O341	O34	0.942110	0.616860	0.026820
O351	O35	0.557980	0.875600	0.451840
O361	O36	0.942310	0.678030	0.030440
O371	O37	0.557590	0.185370	0.544700
O381	O38	0.942110	0.383140	0.973180
O391	O39	0.557980	0.124400	0.548160
O401	O40	0.942310	0.321970	0.969560
O411	O41	0.557590	0.544700	0.814630
O421	O42	0.942110	0.973180	0.616860
O431	O43	0.557980	0.548160	0.875600
O441	O44	0.942310	0.969560	0.678030
O451	O45	0.557590	0.455300	0.185370
O461	O46	0.942110	0.026820	0.383140
O471	O47	0.557980	0.451840	0.124400
O481	O48	0.942310	0.030440	0.321970
O491	O49	0.942410	0.685370	0.955300
O501	O50	0.557890	0.883140	0.526820
O511	O51	0.942020	0.624400	0.951840
O521	O52	0.557690	0.821970	0.530440
O531	O53	0.942410	0.314630	0.044700
O541	O54	0.557890	0.116860	0.473180
O551	O55	0.942020	0.375600	0.048160
O561	O56	0.557690	0.178030	0.469560
O571	O57	0.942410	0.955300	0.314630
O581	O58	0.557890	0.526820	0.116860
O591	O59	0.942020	0.951840	0.375600
O601	O60	0.557690	0.530440	0.178030
O611	O61	0.942410	0.044700	0.685370
O621	O62	0.557890	0.473180	0.883140
O631	O63	0.942020	0.048160	0.624400
O641	O64	0.557690	0.469560	0.821970
