data_XAFFER_clean_PM
_symmetry_space_group_name_H-M	'P1'
_cell_length_a	17.953000
_cell_length_b	19.819300
_cell_length_c	23.023000
_cell_angle_alpha	90.000000
_cell_angle_beta	90.000000
_cell_angle_gamma	116.931000
_symmetry_Int_Tables_number 1

loop_
_symmetry_equiv_pos_as_xyz
'x,y,z'

loop_
_atom_site_label
_atom_site_type_symbol
_atom_site_fract_x
_atom_site_fract_y
_atom_site_fract_z
Zn11	Zn1	0.085350	0.563440	0.000000
Zn21	Zn2	0.914650	0.436560	0.000000
Zn31	Zn3	0.478090	0.563440	0.500000
Zn41	Zn4	0.521910	0.436560	0.500000
H11	H1	0.191800	0.469200	0.872300
H21	H2	0.997200	0.246400	0.794500
H31	H3	0.957800	0.305400	0.866000
H41	H4	0.232100	0.408200	0.805100
H51	H5	0.116600	0.186200	0.834300
H61	H6	0.051300	0.057200	0.834300
H71	H7	0.808200	0.530800	0.872300
H81	H8	0.002800	0.753600	0.794500
H91	H9	0.042200	0.694600	0.866000
H101	H10	0.767900	0.591800	0.805100
H111	H11	0.883400	0.813800	0.834300
H121	H12	0.948700	0.942800	0.834300
H131	H13	0.277400	0.469200	0.627700
H141	H14	0.249200	0.246400	0.705500
H151	H15	0.347600	0.305400	0.634000
H161	H16	0.176100	0.408200	0.694900
H171	H17	0.069600	0.186200	0.665700
H181	H18	0.005900	0.057200	0.665700
H191	H19	0.722600	0.530800	0.627700
H201	H20	0.750800	0.753600	0.705500
H211	H21	0.652400	0.694600	0.634000
H221	H22	0.823900	0.591800	0.694900
H231	H23	0.930400	0.813800	0.665700
H241	H24	0.994100	0.942800	0.665700
H251	H25	0.808200	0.530800	0.127700
H261	H26	0.002800	0.753600	0.205500
H271	H27	0.042200	0.694600	0.134000
H281	H28	0.767900	0.591800	0.194900
H291	H29	0.883400	0.813800	0.165700
H301	H30	0.948700	0.942800	0.165700
H311	H31	0.191800	0.469200	0.127700
H321	H32	0.997200	0.246400	0.205500
H331	H33	0.957800	0.305400	0.134000
H341	H34	0.232100	0.408200	0.194900
H351	H35	0.116600	0.186200	0.165700
H361	H36	0.051300	0.057200	0.165700
H371	H37	0.722600	0.530800	0.372300
H381	H38	0.750800	0.753600	0.294500
H391	H39	0.652400	0.694600	0.366000
H401	H40	0.823900	0.591800	0.305100
H411	H41	0.930400	0.813800	0.334300
H421	H42	0.994100	0.942800	0.334300
H431	H43	0.277400	0.469200	0.372300
H441	H44	0.249200	0.246400	0.294500
H451	H45	0.347600	0.305400	0.366000
H461	H46	0.176100	0.408200	0.305100
H471	H47	0.069600	0.186200	0.334300
H481	H48	0.005900	0.057200	0.334300
C11	C1	0.046280	0.434660	0.921520
C21	C2	0.070740	0.395220	0.876970
C31	C3	0.152040	0.423620	0.857210
C41	C4	0.117310	0.319600	0.791930
C51	C5	0.037250	0.291300	0.810660
C61	C6	0.012970	0.327160	0.853330
C71	C7	0.176410	0.387620	0.816520
C81	C8	0.093960	0.160260	0.799950
C91	C9	0.055000	0.082960	0.799860
C101	C10	0.953720	0.565340	0.921520
C111	C11	0.929260	0.604780	0.876970
C121	C12	0.847960	0.576380	0.857210
C131	C13	0.882690	0.680400	0.791930
C141	C14	0.962750	0.708700	0.810660
C151	C15	0.987030	0.672840	0.853330
C161	C16	0.823590	0.612380	0.816520
C171	C17	0.906040	0.839740	0.799950
C181	C18	0.945000	0.917040	0.799860
C191	C19	0.388380	0.434660	0.578480
C201	C20	0.324480	0.395220	0.623030
C211	C21	0.271580	0.423620	0.642790
C221	C22	0.202290	0.319600	0.708070
C231	C23	0.254050	0.291300	0.689340
C241	C24	0.314190	0.327160	0.646670
C251	C25	0.211210	0.387620	0.683480
C261	C26	0.066300	0.160260	0.700050
C271	C27	0.027960	0.082960	0.700140
C281	C28	0.611620	0.565340	0.578480
C291	C29	0.675520	0.604780	0.623030
C301	C30	0.728420	0.576380	0.642790
C311	C31	0.797710	0.680400	0.708070
C321	C32	0.745950	0.708700	0.689340
C331	C33	0.685810	0.672840	0.646670
C341	C34	0.788790	0.612380	0.683480
C351	C35	0.933700	0.839740	0.700050
C361	C36	0.972040	0.917040	0.700140
C371	C37	0.953720	0.565340	0.078480
C381	C38	0.929260	0.604780	0.123030
C391	C39	0.847960	0.576380	0.142790
C401	C40	0.882690	0.680400	0.208070
C411	C41	0.962750	0.708700	0.189340
C421	C42	0.987030	0.672840	0.146670
C431	C43	0.823590	0.612380	0.183480
C441	C44	0.906040	0.839740	0.200050
C451	C45	0.945000	0.917040	0.200140
C461	C46	0.046280	0.434660	0.078480
C471	C47	0.070740	0.395220	0.123030
C481	C48	0.152040	0.423620	0.142790
C491	C49	0.117310	0.319600	0.208070
C501	C50	0.037250	0.291300	0.189340
C511	C51	0.012970	0.327160	0.146670
C521	C52	0.176410	0.387620	0.183480
C531	C53	0.093960	0.160260	0.200050
C541	C54	0.055000	0.082960	0.200140
C551	C55	0.611620	0.565340	0.421520
C561	C56	0.675520	0.604780	0.376970
C571	C57	0.728420	0.576380	0.357210
C581	C58	0.797710	0.680400	0.291930
C591	C59	0.745950	0.708700	0.310660
C601	C60	0.685810	0.672840	0.353330
C611	C61	0.788790	0.612380	0.316520
C621	C62	0.933700	0.839740	0.299950
C631	C63	0.972040	0.917040	0.299860
C641	C64	0.388380	0.434660	0.421520
C651	C65	0.324480	0.395220	0.376970
C661	C66	0.271580	0.423620	0.357210
C671	C67	0.202290	0.319600	0.291930
C681	C68	0.254050	0.291300	0.310660
C691	C69	0.314190	0.327160	0.353330
C701	C70	0.211210	0.387620	0.316520
C711	C71	0.066300	0.160260	0.299950
C721	C72	0.027960	0.082960	0.299860
C731	C73	0.099890	0.199780	0.750000
C741	C74	0.021180	0.042360	0.750000
C751	C75	0.900110	0.800220	0.750000
C761	C76	0.978820	0.957640	0.750000
C771	C77	0.900110	0.800220	0.250000
C781	C78	0.978820	0.957640	0.250000
C791	C79	0.099890	0.199780	0.250000
C801	C80	0.021180	0.042360	0.250000
N11	N1	0.140540	0.281080	0.750000
N21	N2	0.859460	0.718920	0.750000
N31	N3	0.859460	0.718920	0.250000
N41	N4	0.140540	0.281080	0.250000
O11	O1	0.101400	0.497940	0.938570
O21	O2	0.971310	0.402240	0.938850
O31	O3	0.898600	0.502060	0.938570
O41	O4	0.028690	0.597760	0.938850
O51	O5	0.396540	0.497940	0.561430
O61	O6	0.430930	0.402240	0.561150
O71	O7	0.603460	0.502060	0.561430
O81	O8	0.569070	0.597760	0.561150
O91	O9	0.898600	0.502060	0.061430
O101	O10	0.028690	0.597760	0.061150
O111	O11	0.101400	0.497940	0.061430
O121	O12	0.971310	0.402240	0.061150
O131	O13	0.603460	0.502060	0.438570
O141	O14	0.569070	0.597760	0.438850
O151	O15	0.396540	0.497940	0.438570
O161	O16	0.430930	0.402240	0.438850
