data_XAGCIS01_clean_PM
_symmetry_space_group_name_H-M	'P1'
_cell_length_a	20.521300
_cell_length_b	20.521300
_cell_length_c	20.521300
_cell_angle_alpha	90.000000
_cell_angle_beta	90.000000
_cell_angle_gamma	90.000000
_symmetry_Int_Tables_number 1

loop_
_symmetry_equiv_pos_as_xyz
'x,y,z'

loop_
_atom_site_label
_atom_site_type_symbol
_atom_site_fract_x
_atom_site_fract_y
_atom_site_fract_z
Co11	Co1	0.838720	0.601620	0.856850
Co21	Co2	0.994030	0.438910	0.724150
Co31	Co3	0.661280	0.398380	0.356850
Co41	Co4	0.505970	0.561090	0.224150
Co51	Co5	0.161280	0.101620	0.643150
Co61	Co6	0.005970	0.938910	0.775850
Co71	Co7	0.338720	0.898380	0.143150
Co81	Co8	0.494030	0.061090	0.275850
Co91	Co9	0.856850	0.838720	0.601620
Co101	Co10	0.724150	0.994030	0.438910
Co111	Co11	0.356850	0.661280	0.398380
Co121	Co12	0.224150	0.505970	0.561090
Co131	Co13	0.643150	0.161280	0.101620
Co141	Co14	0.775850	0.005970	0.938910
Co151	Co15	0.143150	0.338720	0.898380
Co161	Co16	0.275850	0.494030	0.061090
Co171	Co17	0.601620	0.856850	0.838720
Co181	Co18	0.438910	0.724150	0.994030
Co191	Co19	0.398380	0.356850	0.661280
Co201	Co20	0.561090	0.224150	0.505970
Co211	Co21	0.101620	0.643150	0.161280
Co221	Co22	0.938910	0.775850	0.005970
Co231	Co23	0.898380	0.143150	0.338720
Co241	Co24	0.061090	0.275850	0.494030
Co251	Co25	0.161280	0.398380	0.143150
Co261	Co26	0.005970	0.561090	0.275850
Co271	Co27	0.338720	0.601620	0.643150
Co281	Co28	0.494030	0.438910	0.775850
Co291	Co29	0.838720	0.898380	0.356850
Co301	Co30	0.994030	0.061090	0.224150
Co311	Co31	0.661280	0.101620	0.856850
Co321	Co32	0.505970	0.938910	0.724150
Co331	Co33	0.143150	0.161280	0.398380
Co341	Co34	0.275850	0.005970	0.561090
Co351	Co35	0.643150	0.338720	0.601620
Co361	Co36	0.775850	0.494030	0.438910
Co371	Co37	0.356850	0.838720	0.898380
Co381	Co38	0.224150	0.994030	0.061090
Co391	Co39	0.856850	0.661280	0.101620
Co401	Co40	0.724150	0.505970	0.938910
Co411	Co41	0.398380	0.143150	0.161280
Co421	Co42	0.561090	0.275850	0.005970
Co431	Co43	0.601620	0.643150	0.338720
Co441	Co44	0.438910	0.775850	0.494030
Co451	Co45	0.898380	0.356850	0.838720
Co461	Co46	0.061090	0.224150	0.994030
Co471	Co47	0.101620	0.856850	0.661280
Co481	Co48	0.938910	0.724150	0.505970
H11	H1	0.879000	0.622300	0.699400
H21	H2	0.997500	0.660800	0.692400
H31	H3	0.008400	0.699800	0.793400
H41	H4	0.888700	0.762900	0.805000
H51	H5	0.853500	0.494800	0.923500
H61	H6	0.841700	0.551700	0.973400
H71	H7	0.621000	0.377700	0.199400
H81	H8	0.502500	0.339200	0.192400
H91	H9	0.491600	0.300200	0.293400
H101	H10	0.611300	0.237100	0.305000
H111	H11	0.646500	0.505200	0.423500
H121	H12	0.658300	0.448300	0.473400
H131	H13	0.121000	0.122300	0.800600
H141	H14	0.002500	0.160800	0.807600
H151	H15	0.991600	0.199800	0.706600
H161	H16	0.111300	0.262900	0.695000
H171	H17	0.146500	0.994800	0.576500
H181	H18	0.158300	0.051700	0.526600
H191	H19	0.379000	0.877700	0.300600
H201	H20	0.497500	0.839200	0.307600
H211	H21	0.508400	0.800200	0.206600
H221	H22	0.388700	0.737100	0.195000
H231	H23	0.353500	0.005200	0.076500
H241	H24	0.341700	0.948300	0.026600
H251	H25	0.699400	0.879000	0.622300
H261	H26	0.692400	0.997500	0.660800
H271	H27	0.793400	0.008400	0.699800
H281	H28	0.805000	0.888700	0.762900
H291	H29	0.923500	0.853500	0.494800
H301	H30	0.973400	0.841700	0.551700
H311	H31	0.199400	0.621000	0.377700
H321	H32	0.192400	0.502500	0.339200
H331	H33	0.293400	0.491600	0.300200
H341	H34	0.305000	0.611300	0.237100
H351	H35	0.423500	0.646500	0.505200
H361	H36	0.473400	0.658300	0.448300
H371	H37	0.800600	0.121000	0.122300
H381	H38	0.807600	0.002500	0.160800
H391	H39	0.706600	0.991600	0.199800
H401	H40	0.695000	0.111300	0.262900
H411	H41	0.576500	0.146500	0.994800
H421	H42	0.526600	0.158300	0.051700
H431	H43	0.300600	0.379000	0.877700
H441	H44	0.307600	0.497500	0.839200
H451	H45	0.206600	0.508400	0.800200
H461	H46	0.195000	0.388700	0.737100
H471	H47	0.076500	0.353500	0.005200
H481	H48	0.026600	0.341700	0.948300
H491	H49	0.622300	0.699400	0.879000
H501	H50	0.660800	0.692400	0.997500
H511	H51	0.699800	0.793400	0.008400
H521	H52	0.762900	0.805000	0.888700
H531	H53	0.494800	0.923500	0.853500
H541	H54	0.551700	0.973400	0.841700
H551	H55	0.377700	0.199400	0.621000
H561	H56	0.339200	0.192400	0.502500
H571	H57	0.300200	0.293400	0.491600
H581	H58	0.237100	0.305000	0.611300
H591	H59	0.505200	0.423500	0.646500
H601	H60	0.448300	0.473400	0.658300
H611	H61	0.122300	0.800600	0.121000
H621	H62	0.160800	0.807600	0.002500
H631	H63	0.199800	0.706600	0.991600
H641	H64	0.262900	0.695000	0.111300
H651	H65	0.994800	0.576500	0.146500
H661	H66	0.051700	0.526600	0.158300
H671	H67	0.877700	0.300600	0.379000
H681	H68	0.839200	0.307600	0.497500
H691	H69	0.800200	0.206600	0.508400
H701	H70	0.737100	0.195000	0.388700
H711	H71	0.005200	0.076500	0.353500
H721	H72	0.948300	0.026600	0.341700
H731	H73	0.121000	0.377700	0.300600
H741	H74	0.002500	0.339200	0.307600
H751	H75	0.991600	0.300200	0.206600
H761	H76	0.111300	0.237100	0.195000
H771	H77	0.146500	0.505200	0.076500
H781	H78	0.158300	0.448300	0.026600
H791	H79	0.379000	0.622300	0.800600
H801	H80	0.497500	0.660800	0.807600
H811	H81	0.508400	0.699800	0.706600
H821	H82	0.388700	0.762900	0.695000
H831	H83	0.353500	0.494800	0.576500
H841	H84	0.341700	0.551700	0.526600
H851	H85	0.879000	0.877700	0.199400
H861	H86	0.997500	0.839200	0.192400
H871	H87	0.008400	0.800200	0.293400
H881	H88	0.888700	0.737100	0.305000
H891	H89	0.853500	0.005200	0.423500
H901	H90	0.841700	0.948300	0.473400
H911	H91	0.621000	0.122300	0.699400
H921	H92	0.502500	0.160800	0.692400
H931	H93	0.491600	0.199800	0.793400
H941	H94	0.611300	0.262900	0.805000
H951	H95	0.646500	0.994800	0.923500
H961	H96	0.658300	0.051700	0.973400
H971	H97	0.300600	0.121000	0.377700
H981	H98	0.307600	0.002500	0.339200
H991	H99	0.206600	0.991600	0.300200
H1001	H100	0.195000	0.111300	0.237100
H1011	H101	0.076500	0.146500	0.505200
H1021	H102	0.026600	0.158300	0.448300
H1031	H103	0.800600	0.379000	0.622300
H1041	H104	0.807600	0.497500	0.660800
H1051	H105	0.706600	0.508400	0.699800
H1061	H106	0.695000	0.388700	0.762900
H1071	H107	0.576500	0.353500	0.494800
H1081	H108	0.526600	0.341700	0.551700
H1091	H109	0.199400	0.879000	0.877700
H1101	H110	0.192400	0.997500	0.839200
H1111	H111	0.293400	0.008400	0.800200
H1121	H112	0.305000	0.888700	0.737100
H1131	H113	0.423500	0.853500	0.005200
H1141	H114	0.473400	0.841700	0.948300
H1151	H115	0.699400	0.621000	0.122300
H1161	H116	0.692400	0.502500	0.160800
H1171	H117	0.793400	0.491600	0.199800
H1181	H118	0.805000	0.611300	0.262900
H1191	H119	0.923500	0.646500	0.994800
H1201	H120	0.973400	0.658300	0.051700
H1211	H121	0.377700	0.300600	0.121000
H1221	H122	0.339200	0.307600	0.002500
H1231	H123	0.300200	0.206600	0.991600
H1241	H124	0.237100	0.195000	0.111300
H1251	H125	0.505200	0.076500	0.146500
H1261	H126	0.448300	0.026600	0.158300
H1271	H127	0.622300	0.800600	0.379000
H1281	H128	0.660800	0.807600	0.497500
H1291	H129	0.699800	0.706600	0.508400
H1301	H130	0.762900	0.695000	0.388700
H1311	H131	0.494800	0.576500	0.353500
H1321	H132	0.551700	0.526600	0.341700
H1331	H133	0.877700	0.199400	0.879000
H1341	H134	0.839200	0.192400	0.997500
H1351	H135	0.800200	0.293400	0.008400
H1361	H136	0.737100	0.305000	0.888700
H1371	H137	0.005200	0.423500	0.853500
H1381	H138	0.948300	0.473400	0.841700
H1391	H139	0.122300	0.699400	0.621000
H1401	H140	0.160800	0.692400	0.502500
H1411	H141	0.199800	0.793400	0.491600
H1421	H142	0.262900	0.805000	0.611300
H1431	H143	0.994800	0.923500	0.646500
H1441	H144	0.051700	0.973400	0.658300
C11	C1	0.909000	0.633870	0.734720
C21	C2	0.938520	0.570920	0.762030
C31	C3	0.958510	0.683330	0.708350
C41	C4	0.925880	0.720860	0.653030
C51	C5	0.975060	0.723920	0.769100
C61	C6	0.003650	0.791340	0.753670
C71	C7	0.912270	0.721670	0.809890
C81	C8	0.926040	0.709630	0.881750
C91	C9	0.591000	0.366130	0.234720
C101	C10	0.561480	0.429080	0.262030
C111	C11	0.541490	0.316670	0.208350
C121	C12	0.574120	0.279140	0.153030
C131	C13	0.524940	0.276080	0.269100
C141	C14	0.496350	0.208660	0.253670
C151	C15	0.587730	0.278330	0.309890
C161	C16	0.573960	0.290370	0.381750
C171	C17	0.091000	0.133870	0.765280
C181	C18	0.061480	0.070920	0.737970
C191	C19	0.041490	0.183330	0.791650
C201	C20	0.074120	0.220860	0.846970
C211	C21	0.024940	0.223920	0.730900
C221	C22	0.996350	0.291340	0.746330
C231	C23	0.087730	0.221670	0.690110
C241	C24	0.073960	0.209630	0.618250
C251	C25	0.409000	0.866130	0.265280
C261	C26	0.438520	0.929080	0.237970
C271	C27	0.458510	0.816670	0.291650
C281	C28	0.425880	0.779140	0.346970
C291	C29	0.475060	0.776080	0.230900
C301	C30	0.503650	0.708660	0.246330
C311	C31	0.412270	0.778330	0.190110
C321	C32	0.426040	0.790370	0.118250
C331	C33	0.734720	0.909000	0.633870
C341	C34	0.762030	0.938520	0.570920
C351	C35	0.708350	0.958510	0.683330
C361	C36	0.653030	0.925880	0.720860
C371	C37	0.769100	0.975060	0.723920
C381	C38	0.753670	0.003650	0.791340
C391	C39	0.809890	0.912270	0.721670
C401	C40	0.881750	0.926040	0.709630
C411	C41	0.234720	0.591000	0.366130
C421	C42	0.262030	0.561480	0.429080
C431	C43	0.208350	0.541490	0.316670
C441	C44	0.153030	0.574120	0.279140
C451	C45	0.269100	0.524940	0.276080
C461	C46	0.253670	0.496350	0.208660
C471	C47	0.309890	0.587730	0.278330
C481	C48	0.381750	0.573960	0.290370
C491	C49	0.765280	0.091000	0.133870
C501	C50	0.737970	0.061480	0.070920
C511	C51	0.791650	0.041490	0.183330
C521	C52	0.846970	0.074120	0.220860
C531	C53	0.730900	0.024940	0.223920
C541	C54	0.746330	0.996350	0.291340
C551	C55	0.690110	0.087730	0.221670
C561	C56	0.618250	0.073960	0.209630
C571	C57	0.265280	0.409000	0.866130
C581	C58	0.237970	0.438520	0.929080
C591	C59	0.291650	0.458510	0.816670
C601	C60	0.346970	0.425880	0.779140
C611	C61	0.230900	0.475060	0.776080
C621	C62	0.246330	0.503650	0.708660
C631	C63	0.190110	0.412270	0.778330
C641	C64	0.118250	0.426040	0.790370
C651	C65	0.633870	0.734720	0.909000
C661	C66	0.570920	0.762030	0.938520
C671	C67	0.683330	0.708350	0.958510
C681	C68	0.720860	0.653030	0.925880
C691	C69	0.723920	0.769100	0.975060
C701	C70	0.791340	0.753670	0.003650
C711	C71	0.721670	0.809890	0.912270
C721	C72	0.709630	0.881750	0.926040
C731	C73	0.366130	0.234720	0.591000
C741	C74	0.429080	0.262030	0.561480
C751	C75	0.316670	0.208350	0.541490
C761	C76	0.279140	0.153030	0.574120
C771	C77	0.276080	0.269100	0.524940
C781	C78	0.208660	0.253670	0.496350
C791	C79	0.278330	0.309890	0.587730
C801	C80	0.290370	0.381750	0.573960
C811	C81	0.133870	0.765280	0.091000
C821	C82	0.070920	0.737970	0.061480
C831	C83	0.183330	0.791650	0.041490
C841	C84	0.220860	0.846970	0.074120
C851	C85	0.223920	0.730900	0.024940
C861	C86	0.291340	0.746330	0.996350
C871	C87	0.221670	0.690110	0.087730
C881	C88	0.209630	0.618250	0.073960
C891	C89	0.866130	0.265280	0.409000
C901	C90	0.929080	0.237970	0.438520
C911	C91	0.816670	0.291650	0.458510
C921	C92	0.779140	0.346970	0.425880
C931	C93	0.776080	0.230900	0.475060
C941	C94	0.708660	0.246330	0.503650
C951	C95	0.778330	0.190110	0.412270
C961	C96	0.790370	0.118250	0.426040
C971	C97	0.091000	0.366130	0.265280
C981	C98	0.061480	0.429080	0.237970
C991	C99	0.041490	0.316670	0.291650
C1001	C100	0.074120	0.279140	0.346970
C1011	C101	0.024940	0.276080	0.230900
C1021	C102	0.996350	0.208660	0.246330
C1031	C103	0.087730	0.278330	0.190110
C1041	C104	0.073960	0.290370	0.118250
C1051	C105	0.409000	0.633870	0.765280
C1061	C106	0.438520	0.570920	0.737970
C1071	C107	0.458510	0.683330	0.791650
C1081	C108	0.425880	0.720860	0.846970
C1091	C109	0.475060	0.723920	0.730900
C1101	C110	0.503650	0.791340	0.746330
C1111	C111	0.412270	0.721670	0.690110
C1121	C112	0.426040	0.709630	0.618250
C1131	C113	0.909000	0.866130	0.234720
C1141	C114	0.938520	0.929080	0.262030
C1151	C115	0.958510	0.816670	0.208350
C1161	C116	0.925880	0.779140	0.153030
C1171	C117	0.975060	0.776080	0.269100
C1181	C118	0.003650	0.708660	0.253670
C1191	C119	0.912270	0.778330	0.309890
C1201	C120	0.926040	0.790370	0.381750
C1211	C121	0.591000	0.133870	0.734720
C1221	C122	0.561480	0.070920	0.762030
C1231	C123	0.541490	0.183330	0.708350
C1241	C124	0.574120	0.220860	0.653030
C1251	C125	0.524940	0.223920	0.769100
C1261	C126	0.496350	0.291340	0.753670
C1271	C127	0.587730	0.221670	0.809890
C1281	C128	0.573960	0.209630	0.881750
C1291	C129	0.265280	0.091000	0.366130
C1301	C130	0.237970	0.061480	0.429080
C1311	C131	0.291650	0.041490	0.316670
C1321	C132	0.346970	0.074120	0.279140
C1331	C133	0.230900	0.024940	0.276080
C1341	C134	0.246330	0.996350	0.208660
C1351	C135	0.190110	0.087730	0.278330
C1361	C136	0.118250	0.073960	0.290370
C1371	C137	0.765280	0.409000	0.633870
C1381	C138	0.737970	0.438520	0.570920
C1391	C139	0.791650	0.458510	0.683330
C1401	C140	0.846970	0.425880	0.720860
C1411	C141	0.730900	0.475060	0.723920
C1421	C142	0.746330	0.503650	0.791340
C1431	C143	0.690110	0.412270	0.721670
C1441	C144	0.618250	0.426040	0.709630
C1451	C145	0.234720	0.909000	0.866130
C1461	C146	0.262030	0.938520	0.929080
C1471	C147	0.208350	0.958510	0.816670
C1481	C148	0.153030	0.925880	0.779140
C1491	C149	0.269100	0.975060	0.776080
C1501	C150	0.253670	0.003650	0.708660
C1511	C151	0.309890	0.912270	0.778330
C1521	C152	0.381750	0.926040	0.790370
C1531	C153	0.734720	0.591000	0.133870
C1541	C154	0.762030	0.561480	0.070920
C1551	C155	0.708350	0.541490	0.183330
C1561	C156	0.653030	0.574120	0.220860
C1571	C157	0.769100	0.524940	0.223920
C1581	C158	0.753670	0.496350	0.291340
C1591	C159	0.809890	0.587730	0.221670
C1601	C160	0.881750	0.573960	0.209630
C1611	C161	0.366130	0.265280	0.091000
C1621	C162	0.429080	0.237970	0.061480
C1631	C163	0.316670	0.291650	0.041490
C1641	C164	0.279140	0.346970	0.074120
C1651	C165	0.276080	0.230900	0.024940
C1661	C166	0.208660	0.246330	0.996350
C1671	C167	0.278330	0.190110	0.087730
C1681	C168	0.290370	0.118250	0.073960
C1691	C169	0.633870	0.765280	0.409000
C1701	C170	0.570920	0.737970	0.438520
C1711	C171	0.683330	0.791650	0.458510
C1721	C172	0.720860	0.846970	0.425880
C1731	C173	0.723920	0.730900	0.475060
C1741	C174	0.791340	0.746330	0.503650
C1751	C175	0.721670	0.690110	0.412270
C1761	C176	0.709630	0.618250	0.426040
C1771	C177	0.866130	0.234720	0.909000
C1781	C178	0.929080	0.262030	0.938520
C1791	C179	0.816670	0.208350	0.958510
C1801	C180	0.779140	0.153030	0.925880
C1811	C181	0.776080	0.269100	0.975060
C1821	C182	0.708660	0.253670	0.003650
C1831	C183	0.778330	0.309890	0.912270
C1841	C184	0.790370	0.381750	0.926040
C1851	C185	0.133870	0.734720	0.591000
C1861	C186	0.070920	0.762030	0.561480
C1871	C187	0.183330	0.708350	0.541490
C1881	C188	0.220860	0.653030	0.574120
C1891	C189	0.223920	0.769100	0.524940
C1901	C190	0.291340	0.753670	0.496350
C1911	C191	0.221670	0.809890	0.587730
C1921	C192	0.209630	0.881750	0.573960
O11	O1	0.872970	0.669020	0.783820
O21	O2	0.919060	0.551650	0.817040
O31	O3	0.977360	0.541410	0.726160
O41	O4	0.929060	0.694030	0.598540
O51	O5	0.896710	0.772670	0.665350
O61	O6	0.051230	0.790210	0.714960
O71	O7	0.980720	0.840400	0.780880
O81	O8	0.957470	0.753450	0.910420
O91	O9	0.906420	0.657870	0.908070
O101	O10	0.827280	0.533100	0.932370
O111	O11	0.627030	0.330980	0.283820
O121	O12	0.580940	0.448350	0.317040
O131	O13	0.522640	0.458590	0.226160
O141	O14	0.570940	0.305970	0.098540
O151	O15	0.603290	0.227330	0.165350
O161	O16	0.448770	0.209790	0.214960
O171	O17	0.519280	0.159600	0.280880
O181	O18	0.542530	0.246550	0.410420
O191	O19	0.593580	0.342130	0.408070
O201	O20	0.672720	0.466900	0.432370
O211	O21	0.127030	0.169020	0.716180
O221	O22	0.080940	0.051650	0.682960
O231	O23	0.022640	0.041410	0.773840
O241	O24	0.070940	0.194030	0.901460
O251	O25	0.103290	0.272670	0.834650
O261	O26	0.948770	0.290210	0.785040
O271	O27	0.019280	0.340400	0.719120
O281	O28	0.042530	0.253450	0.589580
O291	O29	0.093580	0.157870	0.591930
O301	O30	0.172720	0.033100	0.567630
O311	O31	0.372970	0.830980	0.216180
O321	O32	0.419060	0.948350	0.182960
O331	O33	0.477360	0.958590	0.273840
O341	O34	0.429060	0.805970	0.401460
O351	O35	0.396710	0.727330	0.334650
O361	O36	0.551230	0.709790	0.285040
O371	O37	0.480720	0.659600	0.219120
O381	O38	0.457470	0.746550	0.089580
O391	O39	0.406420	0.842130	0.091930
O401	O40	0.327280	0.966900	0.067630
O411	O41	0.783820	0.872970	0.669020
O421	O42	0.817040	0.919060	0.551650
O431	O43	0.726160	0.977360	0.541410
O441	O44	0.598540	0.929060	0.694030
O451	O45	0.665350	0.896710	0.772670
O461	O46	0.714960	0.051230	0.790210
O471	O47	0.780880	0.980720	0.840400
O481	O48	0.910420	0.957470	0.753450
O491	O49	0.908070	0.906420	0.657870
O501	O50	0.932370	0.827280	0.533100
O511	O51	0.283820	0.627030	0.330980
O521	O52	0.317040	0.580940	0.448350
O531	O53	0.226160	0.522640	0.458590
O541	O54	0.098540	0.570940	0.305970
O551	O55	0.165350	0.603290	0.227330
O561	O56	0.214960	0.448770	0.209790
O571	O57	0.280880	0.519280	0.159600
O581	O58	0.410420	0.542530	0.246550
O591	O59	0.408070	0.593580	0.342130
O601	O60	0.432370	0.672720	0.466900
O611	O61	0.716180	0.127030	0.169020
O621	O62	0.682960	0.080940	0.051650
O631	O63	0.773840	0.022640	0.041410
O641	O64	0.901460	0.070940	0.194030
O651	O65	0.834650	0.103290	0.272670
O661	O66	0.785040	0.948770	0.290210
O671	O67	0.719120	0.019280	0.340400
O681	O68	0.589580	0.042530	0.253450
O691	O69	0.591930	0.093580	0.157870
O701	O70	0.567630	0.172720	0.033100
O711	O71	0.216180	0.372970	0.830980
O721	O72	0.182960	0.419060	0.948350
O731	O73	0.273840	0.477360	0.958590
O741	O74	0.401460	0.429060	0.805970
O751	O75	0.334650	0.396710	0.727330
O761	O76	0.285040	0.551230	0.709790
O771	O77	0.219120	0.480720	0.659600
O781	O78	0.089580	0.457470	0.746550
O791	O79	0.091930	0.406420	0.842130
O801	O80	0.067630	0.327280	0.966900
O811	O81	0.669020	0.783820	0.872970
O821	O82	0.551650	0.817040	0.919060
O831	O83	0.541410	0.726160	0.977360
O841	O84	0.694030	0.598540	0.929060
O851	O85	0.772670	0.665350	0.896710
O861	O86	0.790210	0.714960	0.051230
O871	O87	0.840400	0.780880	0.980720
O881	O88	0.753450	0.910420	0.957470
O891	O89	0.657870	0.908070	0.906420
O901	O90	0.533100	0.932370	0.827280
O911	O91	0.330980	0.283820	0.627030
O921	O92	0.448350	0.317040	0.580940
O931	O93	0.458590	0.226160	0.522640
O941	O94	0.305970	0.098540	0.570940
O951	O95	0.227330	0.165350	0.603290
O961	O96	0.209790	0.214960	0.448770
O971	O97	0.159600	0.280880	0.519280
O981	O98	0.246550	0.410420	0.542530
O991	O99	0.342130	0.408070	0.593580
O1001	O100	0.466900	0.432370	0.672720
O1011	O101	0.169020	0.716180	0.127030
O1021	O102	0.051650	0.682960	0.080940
O1031	O103	0.041410	0.773840	0.022640
O1041	O104	0.194030	0.901460	0.070940
O1051	O105	0.272670	0.834650	0.103290
O1061	O106	0.290210	0.785040	0.948770
O1071	O107	0.340400	0.719120	0.019280
O1081	O108	0.253450	0.589580	0.042530
O1091	O109	0.157870	0.591930	0.093580
O1101	O110	0.033100	0.567630	0.172720
O1111	O111	0.830980	0.216180	0.372970
O1121	O112	0.948350	0.182960	0.419060
O1131	O113	0.958590	0.273840	0.477360
O1141	O114	0.805970	0.401460	0.429060
O1151	O115	0.727330	0.334650	0.396710
O1161	O116	0.709790	0.285040	0.551230
O1171	O117	0.659600	0.219120	0.480720
O1181	O118	0.746550	0.089580	0.457470
O1191	O119	0.842130	0.091930	0.406420
O1201	O120	0.966900	0.067630	0.327280
O1211	O121	0.127030	0.330980	0.216180
O1221	O122	0.080940	0.448350	0.182960
O1231	O123	0.022640	0.458590	0.273840
O1241	O124	0.070940	0.305970	0.401460
O1251	O125	0.103290	0.227330	0.334650
O1261	O126	0.948770	0.209790	0.285040
O1271	O127	0.019280	0.159600	0.219120
O1281	O128	0.042530	0.246550	0.089580
O1291	O129	0.093580	0.342130	0.091930
O1301	O130	0.172720	0.466900	0.067630
O1311	O131	0.372970	0.669020	0.716180
O1321	O132	0.419060	0.551650	0.682960
O1331	O133	0.477360	0.541410	0.773840
O1341	O134	0.429060	0.694030	0.901460
O1351	O135	0.396710	0.772670	0.834650
O1361	O136	0.551230	0.790210	0.785040
O1371	O137	0.480720	0.840400	0.719120
O1381	O138	0.457470	0.753450	0.589580
O1391	O139	0.406420	0.657870	0.591930
O1401	O140	0.327280	0.533100	0.567630
O1411	O141	0.872970	0.830980	0.283820
O1421	O142	0.919060	0.948350	0.317040
O1431	O143	0.977360	0.958590	0.226160
O1441	O144	0.929060	0.805970	0.098540
O1451	O145	0.896710	0.727330	0.165350
O1461	O146	0.051230	0.709790	0.214960
O1471	O147	0.980720	0.659600	0.280880
O1481	O148	0.957470	0.746550	0.410420
O1491	O149	0.906420	0.842130	0.408070
O1501	O150	0.827280	0.966900	0.432370
O1511	O151	0.627030	0.169020	0.783820
O1521	O152	0.580940	0.051650	0.817040
O1531	O153	0.522640	0.041410	0.726160
O1541	O154	0.570940	0.194030	0.598540
O1551	O155	0.603290	0.272670	0.665350
O1561	O156	0.448770	0.290210	0.714960
O1571	O157	0.519280	0.340400	0.780880
O1581	O158	0.542530	0.253450	0.910420
O1591	O159	0.593580	0.157870	0.908070
O1601	O160	0.672720	0.033100	0.932370
O1611	O161	0.216180	0.127030	0.330980
O1621	O162	0.182960	0.080940	0.448350
O1631	O163	0.273840	0.022640	0.458590
O1641	O164	0.401460	0.070940	0.305970
O1651	O165	0.334650	0.103290	0.227330
O1661	O166	0.285040	0.948770	0.209790
O1671	O167	0.219120	0.019280	0.159600
O1681	O168	0.089580	0.042530	0.246550
O1691	O169	0.091930	0.093580	0.342130
O1701	O170	0.067630	0.172720	0.466900
O1711	O171	0.716180	0.372970	0.669020
O1721	O172	0.682960	0.419060	0.551650
O1731	O173	0.773840	0.477360	0.541410
O1741	O174	0.901460	0.429060	0.694030
O1751	O175	0.834650	0.396710	0.772670
O1761	O176	0.785040	0.551230	0.790210
O1771	O177	0.719120	0.480720	0.840400
O1781	O178	0.589580	0.457470	0.753450
O1791	O179	0.591930	0.406420	0.657870
O1801	O180	0.567630	0.327280	0.533100
O1811	O181	0.283820	0.872970	0.830980
O1821	O182	0.317040	0.919060	0.948350
O1831	O183	0.226160	0.977360	0.958590
O1841	O184	0.098540	0.929060	0.805970
O1851	O185	0.165350	0.896710	0.727330
O1861	O186	0.214960	0.051230	0.709790
O1871	O187	0.280880	0.980720	0.659600
O1881	O188	0.410420	0.957470	0.746550
O1891	O189	0.408070	0.906420	0.842130
O1901	O190	0.432370	0.827280	0.966900
O1911	O191	0.783820	0.627030	0.169020
O1921	O192	0.817040	0.580940	0.051650
O1931	O193	0.726160	0.522640	0.041410
O1941	O194	0.598540	0.570940	0.194030
O1951	O195	0.665350	0.603290	0.272670
O1961	O196	0.714960	0.448770	0.290210
O1971	O197	0.780880	0.519280	0.340400
O1981	O198	0.910420	0.542530	0.253450
O1991	O199	0.908070	0.593580	0.157870
O2001	O200	0.932370	0.672720	0.033100
O2011	O201	0.330980	0.216180	0.127030
O2021	O202	0.448350	0.182960	0.080940
O2031	O203	0.458590	0.273840	0.022640
O2041	O204	0.305970	0.401460	0.070940
O2051	O205	0.227330	0.334650	0.103290
O2061	O206	0.209790	0.285040	0.948770
O2071	O207	0.159600	0.219120	0.019280
O2081	O208	0.246550	0.089580	0.042530
O2091	O209	0.342130	0.091930	0.093580
O2101	O210	0.466900	0.067630	0.172720
O2111	O211	0.669020	0.716180	0.372970
O2121	O212	0.551650	0.682960	0.419060
O2131	O213	0.541410	0.773840	0.477360
O2141	O214	0.694030	0.901460	0.429060
O2151	O215	0.772670	0.834650	0.396710
O2161	O216	0.790210	0.785040	0.551230
O2171	O217	0.840400	0.719120	0.480720
O2181	O218	0.753450	0.589580	0.457470
O2191	O219	0.657870	0.591930	0.406420
O2201	O220	0.533100	0.567630	0.327280
O2211	O221	0.830980	0.283820	0.872970
O2221	O222	0.948350	0.317040	0.919060
O2231	O223	0.958590	0.226160	0.977360
O2241	O224	0.805970	0.098540	0.929060
O2251	O225	0.727330	0.165350	0.896710
O2261	O226	0.709790	0.214960	0.051230
O2271	O227	0.659600	0.280880	0.980720
O2281	O228	0.746550	0.410420	0.957470
O2291	O229	0.842130	0.408070	0.906420
O2301	O230	0.966900	0.432370	0.827280
O2311	O231	0.169020	0.783820	0.627030
O2321	O232	0.051650	0.817040	0.580940
O2331	O233	0.041410	0.726160	0.522640
O2341	O234	0.194030	0.598540	0.570940
O2351	O235	0.272670	0.665350	0.603290
O2361	O236	0.290210	0.714960	0.448770
O2371	O237	0.340400	0.780880	0.519280
O2381	O238	0.253450	0.910420	0.542530
O2391	O239	0.157870	0.908070	0.593580
O2401	O240	0.033100	0.932370	0.672720
