data_XAGCIS_clean_PM
_symmetry_space_group_name_H-M	'P1'
_cell_length_a	20.495000
_cell_length_b	20.495000
_cell_length_c	20.495000
_cell_angle_alpha	90.000000
_cell_angle_beta	90.000000
_cell_angle_gamma	90.000000
_symmetry_Int_Tables_number 1

loop_
_symmetry_equiv_pos_as_xyz
'x,y,z'

loop_
_atom_site_label
_atom_site_type_symbol
_atom_site_fract_x
_atom_site_fract_y
_atom_site_fract_z
Co11	Co1	0.838540	0.601750	0.856820
Co21	Co2	0.993740	0.439190	0.724190
Co31	Co3	0.661460	0.398250	0.356820
Co41	Co4	0.506260	0.560810	0.224190
Co51	Co5	0.161460	0.101750	0.643180
Co61	Co6	0.006260	0.939190	0.775810
Co71	Co7	0.338540	0.898250	0.143180
Co81	Co8	0.493740	0.060810	0.275810
Co91	Co9	0.856820	0.838540	0.601750
Co101	Co10	0.724190	0.993740	0.439190
Co111	Co11	0.356820	0.661460	0.398250
Co121	Co12	0.224190	0.506260	0.560810
Co131	Co13	0.643180	0.161460	0.101750
Co141	Co14	0.775810	0.006260	0.939190
Co151	Co15	0.143180	0.338540	0.898250
Co161	Co16	0.275810	0.493740	0.060810
Co171	Co17	0.601750	0.856820	0.838540
Co181	Co18	0.439190	0.724190	0.993740
Co191	Co19	0.398250	0.356820	0.661460
Co201	Co20	0.560810	0.224190	0.506260
Co211	Co21	0.101750	0.643180	0.161460
Co221	Co22	0.939190	0.775810	0.006260
Co231	Co23	0.898250	0.143180	0.338540
Co241	Co24	0.060810	0.275810	0.493740
Co251	Co25	0.161460	0.398250	0.143180
Co261	Co26	0.006260	0.560810	0.275810
Co271	Co27	0.338540	0.601750	0.643180
Co281	Co28	0.493740	0.439190	0.775810
Co291	Co29	0.838540	0.898250	0.356820
Co301	Co30	0.993740	0.060810	0.224190
Co311	Co31	0.661460	0.101750	0.856820
Co321	Co32	0.506260	0.939190	0.724190
Co331	Co33	0.143180	0.161460	0.398250
Co341	Co34	0.275810	0.006260	0.560810
Co351	Co35	0.643180	0.338540	0.601750
Co361	Co36	0.775810	0.493740	0.439190
Co371	Co37	0.356820	0.838540	0.898250
Co381	Co38	0.224190	0.993740	0.060810
Co391	Co39	0.856820	0.661460	0.101750
Co401	Co40	0.724190	0.506260	0.939190
Co411	Co41	0.398250	0.143180	0.161460
Co421	Co42	0.560810	0.275810	0.006260
Co431	Co43	0.601750	0.643180	0.338540
Co441	Co44	0.439190	0.775810	0.493740
Co451	Co45	0.898250	0.356820	0.838540
Co461	Co46	0.060810	0.224190	0.993740
Co471	Co47	0.101750	0.856820	0.661460
Co481	Co48	0.939190	0.724190	0.506260
H11	H1	0.879400	0.622400	0.699000
H21	H2	0.997500	0.661500	0.692500
H31	H3	0.007900	0.699500	0.793600
H41	H4	0.888400	0.763100	0.805400
H51	H5	0.853200	0.494900	0.922900
H61	H6	0.841700	0.551900	0.973000
H71	H7	0.620600	0.377600	0.199000
H81	H8	0.502500	0.338500	0.192500
H91	H9	0.492100	0.300500	0.293600
H101	H10	0.611600	0.236900	0.305400
H111	H11	0.646800	0.505100	0.422900
H121	H12	0.658300	0.448100	0.473000
H131	H13	0.120600	0.122400	0.801000
H141	H14	0.002500	0.161500	0.807500
H151	H15	0.992100	0.199500	0.706400
H161	H16	0.111600	0.263100	0.694600
H171	H17	0.146800	0.994900	0.577100
H181	H18	0.158300	0.051900	0.527000
H191	H19	0.379400	0.877600	0.301000
H201	H20	0.497500	0.838500	0.307500
H211	H21	0.507900	0.800500	0.206400
H221	H22	0.388400	0.736900	0.194600
H231	H23	0.353200	0.005100	0.077100
H241	H24	0.341700	0.948100	0.027000
H251	H25	0.699000	0.879400	0.622400
H261	H26	0.692500	0.997500	0.661500
H271	H27	0.793600	0.007900	0.699500
H281	H28	0.805400	0.888400	0.763100
H291	H29	0.922900	0.853200	0.494900
H301	H30	0.973000	0.841700	0.551900
H311	H31	0.199000	0.620600	0.377600
H321	H32	0.192500	0.502500	0.338500
H331	H33	0.293600	0.492100	0.300500
H341	H34	0.305400	0.611600	0.236900
H351	H35	0.422900	0.646800	0.505100
H361	H36	0.473000	0.658300	0.448100
H371	H37	0.801000	0.120600	0.122400
H381	H38	0.807500	0.002500	0.161500
H391	H39	0.706400	0.992100	0.199500
H401	H40	0.694600	0.111600	0.263100
H411	H41	0.577100	0.146800	0.994900
H421	H42	0.527000	0.158300	0.051900
H431	H43	0.301000	0.379400	0.877600
H441	H44	0.307500	0.497500	0.838500
H451	H45	0.206400	0.507900	0.800500
H461	H46	0.194600	0.388400	0.736900
H471	H47	0.077100	0.353200	0.005100
H481	H48	0.027000	0.341700	0.948100
H491	H49	0.622400	0.699000	0.879400
H501	H50	0.661500	0.692500	0.997500
H511	H51	0.699500	0.793600	0.007900
H521	H52	0.763100	0.805400	0.888400
H531	H53	0.494900	0.922900	0.853200
H541	H54	0.551900	0.973000	0.841700
H551	H55	0.377600	0.199000	0.620600
H561	H56	0.338500	0.192500	0.502500
H571	H57	0.300500	0.293600	0.492100
H581	H58	0.236900	0.305400	0.611600
H591	H59	0.505100	0.422900	0.646800
H601	H60	0.448100	0.473000	0.658300
H611	H61	0.122400	0.801000	0.120600
H621	H62	0.161500	0.807500	0.002500
H631	H63	0.199500	0.706400	0.992100
H641	H64	0.263100	0.694600	0.111600
H651	H65	0.994900	0.577100	0.146800
H661	H66	0.051900	0.527000	0.158300
H671	H67	0.877600	0.301000	0.379400
H681	H68	0.838500	0.307500	0.497500
H691	H69	0.800500	0.206400	0.507900
H701	H70	0.736900	0.194600	0.388400
H711	H71	0.005100	0.077100	0.353200
H721	H72	0.948100	0.027000	0.341700
H731	H73	0.120600	0.377600	0.301000
H741	H74	0.002500	0.338500	0.307500
H751	H75	0.992100	0.300500	0.206400
H761	H76	0.111600	0.236900	0.194600
H771	H77	0.146800	0.505100	0.077100
H781	H78	0.158300	0.448100	0.027000
H791	H79	0.379400	0.622400	0.801000
H801	H80	0.497500	0.661500	0.807500
H811	H81	0.507900	0.699500	0.706400
H821	H82	0.388400	0.763100	0.694600
H831	H83	0.353200	0.494900	0.577100
H841	H84	0.341700	0.551900	0.527000
H851	H85	0.879400	0.877600	0.199000
H861	H86	0.997500	0.838500	0.192500
H871	H87	0.007900	0.800500	0.293600
H881	H88	0.888400	0.736900	0.305400
H891	H89	0.853200	0.005100	0.422900
H901	H90	0.841700	0.948100	0.473000
H911	H91	0.620600	0.122400	0.699000
H921	H92	0.502500	0.161500	0.692500
H931	H93	0.492100	0.199500	0.793600
H941	H94	0.611600	0.263100	0.805400
H951	H95	0.646800	0.994900	0.922900
H961	H96	0.658300	0.051900	0.973000
H971	H97	0.301000	0.120600	0.377600
H981	H98	0.307500	0.002500	0.338500
H991	H99	0.206400	0.992100	0.300500
H1001	H100	0.194600	0.111600	0.236900
H1011	H101	0.077100	0.146800	0.505100
H1021	H102	0.027000	0.158300	0.448100
H1031	H103	0.801000	0.379400	0.622400
H1041	H104	0.807500	0.497500	0.661500
H1051	H105	0.706400	0.507900	0.699500
H1061	H106	0.694600	0.388400	0.763100
H1071	H107	0.577100	0.353200	0.494900
H1081	H108	0.527000	0.341700	0.551900
H1091	H109	0.199000	0.879400	0.877600
H1101	H110	0.192500	0.997500	0.838500
H1111	H111	0.293600	0.007900	0.800500
H1121	H112	0.305400	0.888400	0.736900
H1131	H113	0.422900	0.853200	0.005100
H1141	H114	0.473000	0.841700	0.948100
H1151	H115	0.699000	0.620600	0.122400
H1161	H116	0.692500	0.502500	0.161500
H1171	H117	0.793600	0.492100	0.199500
H1181	H118	0.805400	0.611600	0.263100
H1191	H119	0.922900	0.646800	0.994900
H1201	H120	0.973000	0.658300	0.051900
H1211	H121	0.377600	0.301000	0.120600
H1221	H122	0.338500	0.307500	0.002500
H1231	H123	0.300500	0.206400	0.992100
H1241	H124	0.236900	0.194600	0.111600
H1251	H125	0.505100	0.077100	0.146800
H1261	H126	0.448100	0.027000	0.158300
H1271	H127	0.622400	0.801000	0.379400
H1281	H128	0.661500	0.807500	0.497500
H1291	H129	0.699500	0.706400	0.507900
H1301	H130	0.763100	0.694600	0.388400
H1311	H131	0.494900	0.577100	0.353200
H1321	H132	0.551900	0.527000	0.341700
H1331	H133	0.877600	0.199000	0.879400
H1341	H134	0.838500	0.192500	0.997500
H1351	H135	0.800500	0.293600	0.007900
H1361	H136	0.736900	0.305400	0.888400
H1371	H137	0.005100	0.422900	0.853200
H1381	H138	0.948100	0.473000	0.841700
H1391	H139	0.122400	0.699000	0.620600
H1401	H140	0.161500	0.692500	0.502500
H1411	H141	0.199500	0.793600	0.492100
H1421	H142	0.263100	0.805400	0.611600
H1431	H143	0.994900	0.922900	0.646800
H1441	H144	0.051900	0.973000	0.658300
C11	C1	0.909400	0.633900	0.734400
C21	C2	0.938400	0.571000	0.762000
C31	C3	0.958300	0.683700	0.708500
C41	C4	0.925900	0.721200	0.653100
C51	C5	0.974600	0.723800	0.769400
C61	C6	0.003600	0.791800	0.753700
C71	C7	0.911900	0.721800	0.810300
C81	C8	0.925800	0.709500	0.882000
C91	C9	0.590600	0.366100	0.234400
C101	C10	0.561600	0.429000	0.262000
C111	C11	0.541700	0.316300	0.208500
C121	C12	0.574100	0.278800	0.153100
C131	C13	0.525400	0.276200	0.269400
C141	C14	0.496400	0.208200	0.253700
C151	C15	0.588100	0.278200	0.310300
C161	C16	0.574200	0.290500	0.382000
C171	C17	0.090600	0.133900	0.765600
C181	C18	0.061600	0.071000	0.738000
C191	C19	0.041700	0.183700	0.791500
C201	C20	0.074100	0.221200	0.846900
C211	C21	0.025400	0.223800	0.730600
C221	C22	0.996400	0.291800	0.746300
C231	C23	0.088100	0.221800	0.689700
C241	C24	0.074200	0.209500	0.618000
C251	C25	0.409400	0.866100	0.265600
C261	C26	0.438400	0.929000	0.238000
C271	C27	0.458300	0.816300	0.291500
C281	C28	0.425900	0.778800	0.346900
C291	C29	0.474600	0.776200	0.230600
C301	C30	0.503600	0.708200	0.246300
C311	C31	0.411900	0.778200	0.189700
C321	C32	0.425800	0.790500	0.118000
C331	C33	0.734400	0.909400	0.633900
C341	C34	0.762000	0.938400	0.571000
C351	C35	0.708500	0.958300	0.683700
C361	C36	0.653100	0.925900	0.721200
C371	C37	0.769400	0.974600	0.723800
C381	C38	0.753700	0.003600	0.791800
C391	C39	0.810300	0.911900	0.721800
C401	C40	0.882000	0.925800	0.709500
C411	C41	0.234400	0.590600	0.366100
C421	C42	0.262000	0.561600	0.429000
C431	C43	0.208500	0.541700	0.316300
C441	C44	0.153100	0.574100	0.278800
C451	C45	0.269400	0.525400	0.276200
C461	C46	0.253700	0.496400	0.208200
C471	C47	0.310300	0.588100	0.278200
C481	C48	0.382000	0.574200	0.290500
C491	C49	0.765600	0.090600	0.133900
C501	C50	0.738000	0.061600	0.071000
C511	C51	0.791500	0.041700	0.183700
C521	C52	0.846900	0.074100	0.221200
C531	C53	0.730600	0.025400	0.223800
C541	C54	0.746300	0.996400	0.291800
C551	C55	0.689700	0.088100	0.221800
C561	C56	0.618000	0.074200	0.209500
C571	C57	0.265600	0.409400	0.866100
C581	C58	0.238000	0.438400	0.929000
C591	C59	0.291500	0.458300	0.816300
C601	C60	0.346900	0.425900	0.778800
C611	C61	0.230600	0.474600	0.776200
C621	C62	0.246300	0.503600	0.708200
C631	C63	0.189700	0.411900	0.778200
C641	C64	0.118000	0.425800	0.790500
C651	C65	0.633900	0.734400	0.909400
C661	C66	0.571000	0.762000	0.938400
C671	C67	0.683700	0.708500	0.958300
C681	C68	0.721200	0.653100	0.925900
C691	C69	0.723800	0.769400	0.974600
C701	C70	0.791800	0.753700	0.003600
C711	C71	0.721800	0.810300	0.911900
C721	C72	0.709500	0.882000	0.925800
C731	C73	0.366100	0.234400	0.590600
C741	C74	0.429000	0.262000	0.561600
C751	C75	0.316300	0.208500	0.541700
C761	C76	0.278800	0.153100	0.574100
C771	C77	0.276200	0.269400	0.525400
C781	C78	0.208200	0.253700	0.496400
C791	C79	0.278200	0.310300	0.588100
C801	C80	0.290500	0.382000	0.574200
C811	C81	0.133900	0.765600	0.090600
C821	C82	0.071000	0.738000	0.061600
C831	C83	0.183700	0.791500	0.041700
C841	C84	0.221200	0.846900	0.074100
C851	C85	0.223800	0.730600	0.025400
C861	C86	0.291800	0.746300	0.996400
C871	C87	0.221800	0.689700	0.088100
C881	C88	0.209500	0.618000	0.074200
C891	C89	0.866100	0.265600	0.409400
C901	C90	0.929000	0.238000	0.438400
C911	C91	0.816300	0.291500	0.458300
C921	C92	0.778800	0.346900	0.425900
C931	C93	0.776200	0.230600	0.474600
C941	C94	0.708200	0.246300	0.503600
C951	C95	0.778200	0.189700	0.411900
C961	C96	0.790500	0.118000	0.425800
C971	C97	0.090600	0.366100	0.265600
C981	C98	0.061600	0.429000	0.238000
C991	C99	0.041700	0.316300	0.291500
C1001	C100	0.074100	0.278800	0.346900
C1011	C101	0.025400	0.276200	0.230600
C1021	C102	0.996400	0.208200	0.246300
C1031	C103	0.088100	0.278200	0.189700
C1041	C104	0.074200	0.290500	0.118000
C1051	C105	0.409400	0.633900	0.765600
C1061	C106	0.438400	0.571000	0.738000
C1071	C107	0.458300	0.683700	0.791500
C1081	C108	0.425900	0.721200	0.846900
C1091	C109	0.474600	0.723800	0.730600
C1101	C110	0.503600	0.791800	0.746300
C1111	C111	0.411900	0.721800	0.689700
C1121	C112	0.425800	0.709500	0.618000
C1131	C113	0.909400	0.866100	0.234400
C1141	C114	0.938400	0.929000	0.262000
C1151	C115	0.958300	0.816300	0.208500
C1161	C116	0.925900	0.778800	0.153100
C1171	C117	0.974600	0.776200	0.269400
C1181	C118	0.003600	0.708200	0.253700
C1191	C119	0.911900	0.778200	0.310300
C1201	C120	0.925800	0.790500	0.382000
C1211	C121	0.590600	0.133900	0.734400
C1221	C122	0.561600	0.071000	0.762000
C1231	C123	0.541700	0.183700	0.708500
C1241	C124	0.574100	0.221200	0.653100
C1251	C125	0.525400	0.223800	0.769400
C1261	C126	0.496400	0.291800	0.753700
C1271	C127	0.588100	0.221800	0.810300
C1281	C128	0.574200	0.209500	0.882000
C1291	C129	0.265600	0.090600	0.366100
C1301	C130	0.238000	0.061600	0.429000
C1311	C131	0.291500	0.041700	0.316300
C1321	C132	0.346900	0.074100	0.278800
C1331	C133	0.230600	0.025400	0.276200
C1341	C134	0.246300	0.996400	0.208200
C1351	C135	0.189700	0.088100	0.278200
C1361	C136	0.118000	0.074200	0.290500
C1371	C137	0.765600	0.409400	0.633900
C1381	C138	0.738000	0.438400	0.571000
C1391	C139	0.791500	0.458300	0.683700
C1401	C140	0.846900	0.425900	0.721200
C1411	C141	0.730600	0.474600	0.723800
C1421	C142	0.746300	0.503600	0.791800
C1431	C143	0.689700	0.411900	0.721800
C1441	C144	0.618000	0.425800	0.709500
C1451	C145	0.234400	0.909400	0.866100
C1461	C146	0.262000	0.938400	0.929000
C1471	C147	0.208500	0.958300	0.816300
C1481	C148	0.153100	0.925900	0.778800
C1491	C149	0.269400	0.974600	0.776200
C1501	C150	0.253700	0.003600	0.708200
C1511	C151	0.310300	0.911900	0.778200
C1521	C152	0.382000	0.925800	0.790500
C1531	C153	0.734400	0.590600	0.133900
C1541	C154	0.762000	0.561600	0.071000
C1551	C155	0.708500	0.541700	0.183700
C1561	C156	0.653100	0.574100	0.221200
C1571	C157	0.769400	0.525400	0.223800
C1581	C158	0.753700	0.496400	0.291800
C1591	C159	0.810300	0.588100	0.221800
C1601	C160	0.882000	0.574200	0.209500
C1611	C161	0.366100	0.265600	0.090600
C1621	C162	0.429000	0.238000	0.061600
C1631	C163	0.316300	0.291500	0.041700
C1641	C164	0.278800	0.346900	0.074100
C1651	C165	0.276200	0.230600	0.025400
C1661	C166	0.208200	0.246300	0.996400
C1671	C167	0.278200	0.189700	0.088100
C1681	C168	0.290500	0.118000	0.074200
C1691	C169	0.633900	0.765600	0.409400
C1701	C170	0.571000	0.738000	0.438400
C1711	C171	0.683700	0.791500	0.458300
C1721	C172	0.721200	0.846900	0.425900
C1731	C173	0.723800	0.730600	0.474600
C1741	C174	0.791800	0.746300	0.503600
C1751	C175	0.721800	0.689700	0.411900
C1761	C176	0.709500	0.618000	0.425800
C1771	C177	0.866100	0.234400	0.909400
C1781	C178	0.929000	0.262000	0.938400
C1791	C179	0.816300	0.208500	0.958300
C1801	C180	0.778800	0.153100	0.925900
C1811	C181	0.776200	0.269400	0.974600
C1821	C182	0.708200	0.253700	0.003600
C1831	C183	0.778200	0.310300	0.911900
C1841	C184	0.790500	0.382000	0.925800
C1851	C185	0.133900	0.734400	0.590600
C1861	C186	0.071000	0.762000	0.561600
C1871	C187	0.183700	0.708500	0.541700
C1881	C188	0.221200	0.653100	0.574100
C1891	C189	0.223800	0.769400	0.525400
C1901	C190	0.291800	0.753700	0.496400
C1911	C191	0.221800	0.810300	0.588100
C1921	C192	0.209500	0.882000	0.574200
O11	O1	0.872900	0.669200	0.783900
O21	O2	0.919000	0.551700	0.817000
O31	O3	0.977500	0.541600	0.726800
O41	O4	0.929700	0.694600	0.599000
O51	O5	0.896600	0.772200	0.665700
O61	O6	0.050700	0.790600	0.714900
O71	O7	0.981000	0.840800	0.781800
O81	O8	0.957100	0.753700	0.910600
O91	O9	0.906300	0.658400	0.908200
O101	O10	0.827100	0.533300	0.932000
O111	O11	0.627100	0.330800	0.283900
O121	O12	0.581000	0.448300	0.317000
O131	O13	0.522500	0.458400	0.226800
O141	O14	0.570300	0.305400	0.099000
O151	O15	0.603400	0.227800	0.165700
O161	O16	0.449300	0.209400	0.214900
O171	O17	0.519000	0.159200	0.281800
O181	O18	0.542900	0.246300	0.410600
O191	O19	0.593700	0.341600	0.408200
O201	O20	0.672900	0.466700	0.432000
O211	O21	0.127100	0.169200	0.716100
O221	O22	0.081000	0.051700	0.683000
O231	O23	0.022500	0.041600	0.773200
O241	O24	0.070300	0.194600	0.901000
O251	O25	0.103400	0.272200	0.834300
O261	O26	0.949300	0.290600	0.785100
O271	O27	0.019000	0.340800	0.718200
O281	O28	0.042900	0.253700	0.589400
O291	O29	0.093700	0.158400	0.591800
O301	O30	0.172900	0.033300	0.568000
O311	O31	0.372900	0.830800	0.216100
O321	O32	0.419000	0.948300	0.183000
O331	O33	0.477500	0.958400	0.273200
O341	O34	0.429700	0.805400	0.401000
O351	O35	0.396600	0.727800	0.334300
O361	O36	0.550700	0.709400	0.285100
O371	O37	0.481000	0.659200	0.218200
O381	O38	0.457100	0.746300	0.089400
O391	O39	0.406300	0.841600	0.091800
O401	O40	0.327100	0.966700	0.068000
O411	O41	0.783900	0.872900	0.669200
O421	O42	0.817000	0.919000	0.551700
O431	O43	0.726800	0.977500	0.541600
O441	O44	0.599000	0.929700	0.694600
O451	O45	0.665700	0.896600	0.772200
O461	O46	0.714900	0.050700	0.790600
O471	O47	0.781800	0.981000	0.840800
O481	O48	0.910600	0.957100	0.753700
O491	O49	0.908200	0.906300	0.658400
O501	O50	0.932000	0.827100	0.533300
O511	O51	0.283900	0.627100	0.330800
O521	O52	0.317000	0.581000	0.448300
O531	O53	0.226800	0.522500	0.458400
O541	O54	0.099000	0.570300	0.305400
O551	O55	0.165700	0.603400	0.227800
O561	O56	0.214900	0.449300	0.209400
O571	O57	0.281800	0.519000	0.159200
O581	O58	0.410600	0.542900	0.246300
O591	O59	0.408200	0.593700	0.341600
O601	O60	0.432000	0.672900	0.466700
O611	O61	0.716100	0.127100	0.169200
O621	O62	0.683000	0.081000	0.051700
O631	O63	0.773200	0.022500	0.041600
O641	O64	0.901000	0.070300	0.194600
O651	O65	0.834300	0.103400	0.272200
O661	O66	0.785100	0.949300	0.290600
O671	O67	0.718200	0.019000	0.340800
O681	O68	0.589400	0.042900	0.253700
O691	O69	0.591800	0.093700	0.158400
O701	O70	0.568000	0.172900	0.033300
O711	O71	0.216100	0.372900	0.830800
O721	O72	0.183000	0.419000	0.948300
O731	O73	0.273200	0.477500	0.958400
O741	O74	0.401000	0.429700	0.805400
O751	O75	0.334300	0.396600	0.727800
O761	O76	0.285100	0.550700	0.709400
O771	O77	0.218200	0.481000	0.659200
O781	O78	0.089400	0.457100	0.746300
O791	O79	0.091800	0.406300	0.841600
O801	O80	0.068000	0.327100	0.966700
O811	O81	0.669200	0.783900	0.872900
O821	O82	0.551700	0.817000	0.919000
O831	O83	0.541600	0.726800	0.977500
O841	O84	0.694600	0.599000	0.929700
O851	O85	0.772200	0.665700	0.896600
O861	O86	0.790600	0.714900	0.050700
O871	O87	0.840800	0.781800	0.981000
O881	O88	0.753700	0.910600	0.957100
O891	O89	0.658400	0.908200	0.906300
O901	O90	0.533300	0.932000	0.827100
O911	O91	0.330800	0.283900	0.627100
O921	O92	0.448300	0.317000	0.581000
O931	O93	0.458400	0.226800	0.522500
O941	O94	0.305400	0.099000	0.570300
O951	O95	0.227800	0.165700	0.603400
O961	O96	0.209400	0.214900	0.449300
O971	O97	0.159200	0.281800	0.519000
O981	O98	0.246300	0.410600	0.542900
O991	O99	0.341600	0.408200	0.593700
O1001	O100	0.466700	0.432000	0.672900
O1011	O101	0.169200	0.716100	0.127100
O1021	O102	0.051700	0.683000	0.081000
O1031	O103	0.041600	0.773200	0.022500
O1041	O104	0.194600	0.901000	0.070300
O1051	O105	0.272200	0.834300	0.103400
O1061	O106	0.290600	0.785100	0.949300
O1071	O107	0.340800	0.718200	0.019000
O1081	O108	0.253700	0.589400	0.042900
O1091	O109	0.158400	0.591800	0.093700
O1101	O110	0.033300	0.568000	0.172900
O1111	O111	0.830800	0.216100	0.372900
O1121	O112	0.948300	0.183000	0.419000
O1131	O113	0.958400	0.273200	0.477500
O1141	O114	0.805400	0.401000	0.429700
O1151	O115	0.727800	0.334300	0.396600
O1161	O116	0.709400	0.285100	0.550700
O1171	O117	0.659200	0.218200	0.481000
O1181	O118	0.746300	0.089400	0.457100
O1191	O119	0.841600	0.091800	0.406300
O1201	O120	0.966700	0.068000	0.327100
O1211	O121	0.127100	0.330800	0.216100
O1221	O122	0.081000	0.448300	0.183000
O1231	O123	0.022500	0.458400	0.273200
O1241	O124	0.070300	0.305400	0.401000
O1251	O125	0.103400	0.227800	0.334300
O1261	O126	0.949300	0.209400	0.285100
O1271	O127	0.019000	0.159200	0.218200
O1281	O128	0.042900	0.246300	0.089400
O1291	O129	0.093700	0.341600	0.091800
O1301	O130	0.172900	0.466700	0.068000
O1311	O131	0.372900	0.669200	0.716100
O1321	O132	0.419000	0.551700	0.683000
O1331	O133	0.477500	0.541600	0.773200
O1341	O134	0.429700	0.694600	0.901000
O1351	O135	0.396600	0.772200	0.834300
O1361	O136	0.550700	0.790600	0.785100
O1371	O137	0.481000	0.840800	0.718200
O1381	O138	0.457100	0.753700	0.589400
O1391	O139	0.406300	0.658400	0.591800
O1401	O140	0.327100	0.533300	0.568000
O1411	O141	0.872900	0.830800	0.283900
O1421	O142	0.919000	0.948300	0.317000
O1431	O143	0.977500	0.958400	0.226800
O1441	O144	0.929700	0.805400	0.099000
O1451	O145	0.896600	0.727800	0.165700
O1461	O146	0.050700	0.709400	0.214900
O1471	O147	0.981000	0.659200	0.281800
O1481	O148	0.957100	0.746300	0.410600
O1491	O149	0.906300	0.841600	0.408200
O1501	O150	0.827100	0.966700	0.432000
O1511	O151	0.627100	0.169200	0.783900
O1521	O152	0.581000	0.051700	0.817000
O1531	O153	0.522500	0.041600	0.726800
O1541	O154	0.570300	0.194600	0.599000
O1551	O155	0.603400	0.272200	0.665700
O1561	O156	0.449300	0.290600	0.714900
O1571	O157	0.519000	0.340800	0.781800
O1581	O158	0.542900	0.253700	0.910600
O1591	O159	0.593700	0.158400	0.908200
O1601	O160	0.672900	0.033300	0.932000
O1611	O161	0.216100	0.127100	0.330800
O1621	O162	0.183000	0.081000	0.448300
O1631	O163	0.273200	0.022500	0.458400
O1641	O164	0.401000	0.070300	0.305400
O1651	O165	0.334300	0.103400	0.227800
O1661	O166	0.285100	0.949300	0.209400
O1671	O167	0.218200	0.019000	0.159200
O1681	O168	0.089400	0.042900	0.246300
O1691	O169	0.091800	0.093700	0.341600
O1701	O170	0.068000	0.172900	0.466700
O1711	O171	0.716100	0.372900	0.669200
O1721	O172	0.683000	0.419000	0.551700
O1731	O173	0.773200	0.477500	0.541600
O1741	O174	0.901000	0.429700	0.694600
O1751	O175	0.834300	0.396600	0.772200
O1761	O176	0.785100	0.550700	0.790600
O1771	O177	0.718200	0.481000	0.840800
O1781	O178	0.589400	0.457100	0.753700
O1791	O179	0.591800	0.406300	0.658400
O1801	O180	0.568000	0.327100	0.533300
O1811	O181	0.283900	0.872900	0.830800
O1821	O182	0.317000	0.919000	0.948300
O1831	O183	0.226800	0.977500	0.958400
O1841	O184	0.099000	0.929700	0.805400
O1851	O185	0.165700	0.896600	0.727800
O1861	O186	0.214900	0.050700	0.709400
O1871	O187	0.281800	0.981000	0.659200
O1881	O188	0.410600	0.957100	0.746300
O1891	O189	0.408200	0.906300	0.841600
O1901	O190	0.432000	0.827100	0.966700
O1911	O191	0.783900	0.627100	0.169200
O1921	O192	0.817000	0.581000	0.051700
O1931	O193	0.726800	0.522500	0.041600
O1941	O194	0.599000	0.570300	0.194600
O1951	O195	0.665700	0.603400	0.272200
O1961	O196	0.714900	0.449300	0.290600
O1971	O197	0.781800	0.519000	0.340800
O1981	O198	0.910600	0.542900	0.253700
O1991	O199	0.908200	0.593700	0.158400
O2001	O200	0.932000	0.672900	0.033300
O2011	O201	0.330800	0.216100	0.127100
O2021	O202	0.448300	0.183000	0.081000
O2031	O203	0.458400	0.273200	0.022500
O2041	O204	0.305400	0.401000	0.070300
O2051	O205	0.227800	0.334300	0.103400
O2061	O206	0.209400	0.285100	0.949300
O2071	O207	0.159200	0.218200	0.019000
O2081	O208	0.246300	0.089400	0.042900
O2091	O209	0.341600	0.091800	0.093700
O2101	O210	0.466700	0.068000	0.172900
O2111	O211	0.669200	0.716100	0.372900
O2121	O212	0.551700	0.683000	0.419000
O2131	O213	0.541600	0.773200	0.477500
O2141	O214	0.694600	0.901000	0.429700
O2151	O215	0.772200	0.834300	0.396600
O2161	O216	0.790600	0.785100	0.550700
O2171	O217	0.840800	0.718200	0.481000
O2181	O218	0.753700	0.589400	0.457100
O2191	O219	0.658400	0.591800	0.406300
O2201	O220	0.533300	0.568000	0.327100
O2211	O221	0.830800	0.283900	0.872900
O2221	O222	0.948300	0.317000	0.919000
O2231	O223	0.958400	0.226800	0.977500
O2241	O224	0.805400	0.099000	0.929700
O2251	O225	0.727800	0.165700	0.896600
O2261	O226	0.709400	0.214900	0.050700
O2271	O227	0.659200	0.281800	0.981000
O2281	O228	0.746300	0.410600	0.957100
O2291	O229	0.841600	0.408200	0.906300
O2301	O230	0.966700	0.432000	0.827100
O2311	O231	0.169200	0.783900	0.627100
O2321	O232	0.051700	0.817000	0.581000
O2331	O233	0.041600	0.726800	0.522500
O2341	O234	0.194600	0.599000	0.570300
O2351	O235	0.272200	0.665700	0.603400
O2361	O236	0.290600	0.714900	0.449300
O2371	O237	0.340800	0.781800	0.519000
O2381	O238	0.253700	0.910600	0.542900
O2391	O239	0.158400	0.908200	0.593700
O2401	O240	0.033300	0.932000	0.672900
