data_XAHPUU_clean_PM
_symmetry_space_group_name_H-M	'P1'
_cell_length_a	9.887900
_cell_length_b	15.982600
_cell_length_c	11.288700
_cell_angle_alpha	90.000000
_cell_angle_beta	111.178000
_cell_angle_gamma	90.000000
_symmetry_Int_Tables_number 1

loop_
_symmetry_equiv_pos_as_xyz
'x,y,z'

loop_
_atom_site_label
_atom_site_type_symbol
_atom_site_fract_x
_atom_site_fract_y
_atom_site_fract_z
C11	C1	0.302300	0.449900	0.436200
N11	N1	0.188000	0.422000	0.400100
K11	K1	0.970860	0.452980	0.157840
Au11	Au1	0.149080	0.777340	0.361360
C21	C2	0.243000	0.889100	0.411000
N21	N2	0.299000	0.952300	0.443800
C31	C3	0.051200	0.666000	0.319200
N31	N3	0.992700	0.603400	0.295900
Au21	Au2	0.914270	0.817270	0.088470
C41	C4	0.028600	0.749700	0.007300
N41	N4	0.087500	0.709000	0.958800
C51	C5	0.794000	0.879800	0.166500
N51	N5	0.721700	0.915200	0.211100
C61	C6	0.197700	0.949900	0.063800
N61	N6	0.312000	0.922000	0.099900
K21	K2	0.529140	0.952980	0.342160
Au31	Au3	0.350920	0.277340	0.138640
C71	C7	0.257000	0.389100	0.089000
N71	N7	0.201000	0.452300	0.056200
C81	C8	0.448800	0.166000	0.180800
N81	N8	0.507300	0.103400	0.204100
Au41	Au4	0.585730	0.317270	0.411530
C91	C9	0.471400	0.249700	0.492700
N91	N9	0.412500	0.209000	0.541200
C101	C10	0.706000	0.379800	0.333500
N101	N10	0.778300	0.415200	0.288900
C111	C11	0.697700	0.550100	0.563800
N111	N11	0.812000	0.578000	0.599900
K31	K3	0.029140	0.547020	0.842160
Au51	Au5	0.850920	0.222660	0.638640
C121	C12	0.757000	0.110900	0.589000
N121	N12	0.701000	0.047700	0.556200
C131	C13	0.948800	0.334000	0.680800
N131	N13	0.007300	0.396600	0.704100
Au61	Au6	0.085730	0.182730	0.911530
C141	C14	0.971400	0.250300	0.992700
N141	N14	0.912500	0.291000	0.041200
C151	C15	0.206000	0.120200	0.833500
N151	N15	0.278300	0.084800	0.788900
C161	C16	0.802300	0.050100	0.936200
N161	N16	0.688000	0.078000	0.900100
K41	K4	0.470860	0.047020	0.657840
Au71	Au7	0.649080	0.722660	0.861360
C171	C17	0.743000	0.610900	0.911000
N171	N17	0.799000	0.547700	0.943800
C181	C18	0.551200	0.834000	0.819200
N181	N18	0.492700	0.896600	0.795900
Au81	Au8	0.414270	0.682730	0.588470
C191	C19	0.528600	0.750300	0.507300
N191	N19	0.587500	0.791000	0.458800
C201	C20	0.294000	0.620200	0.666500
N201	N20	0.221700	0.584800	0.711100
Au91	Au9	0.500000	0.500000	0.500000
Au101	Au10	0.000000	0.000000	0.000000
K51	K5	0.000000	0.500000	0.500000
K61	K6	0.500000	0.000000	0.000000
