data_XAHPED_clean_PM
_symmetry_space_group_name_H-M	'P1'
_cell_length_a	21.416900
_cell_length_b	21.416900
_cell_length_c	32.572900
_cell_angle_alpha	109.193000
_cell_angle_beta	109.193000
_cell_angle_gamma	90.000100
_symmetry_Int_Tables_number 1

loop_
_symmetry_equiv_pos_as_xyz
'x,y,z'

loop_
_atom_site_label
_atom_site_type_symbol
_atom_site_fract_x
_atom_site_fract_y
_atom_site_fract_z
Cu11	Cu1	0.841690	0.426980	0.782420
Cu21	Cu2	0.940730	0.355440	0.782420
Cu31	Cu3	0.676980	0.690730	0.282420
Cu41	Cu4	0.605440	0.591690	0.282420
Cu51	Cu5	0.309270	0.323020	0.717580
Cu61	Cu6	0.408310	0.394560	0.717580
Cu71	Cu7	0.644560	0.059270	0.217580
Cu81	Cu8	0.573020	0.158310	0.217580
H11	H1	0.080100	0.654100	0.956600
H21	H2	0.342100	0.696700	0.961800
H31	H3	0.365900	0.620500	0.902000
H41	H4	0.178600	0.525200	0.856800
H51	H5	0.095500	0.510100	0.873600
H61	H6	0.002100	0.592700	0.889600
H71	H7	0.251100	0.477100	0.816800
H81	H8	0.367700	0.548100	0.834200
H91	H9	0.066300	0.770400	0.990800
H101	H10	0.074200	0.730300	0.025200
H111	H11	0.143400	0.850800	0.072800
H121	H12	0.083100	0.820000	0.080800
H131	H13	0.069400	0.859000	0.045600
H141	H14	0.876500	0.302500	0.956600
H151	H15	0.619700	0.265100	0.961800
H161	H16	0.536100	0.281500	0.902000
H171	H17	0.678200	0.331600	0.856800
H181	H18	0.778100	0.363500	0.873600
H191	H19	0.887500	0.296900	0.889600
H201	H20	0.565700	0.339700	0.816800
H211	H21	0.466500	0.286100	0.834200
H221	H22	0.924500	0.220400	0.990800
H231	H23	0.951000	0.294900	0.025200
H241	H24	0.929400	0.222000	0.072800
H251	H25	0.997700	0.260800	0.080800
H261	H26	0.976200	0.186600	0.045600
H271	H27	0.904100	0.626500	0.456600
H281	H28	0.946700	0.369700	0.461800
H291	H29	0.870500	0.286100	0.402000
H301	H30	0.775200	0.428200	0.356800
H311	H31	0.760100	0.528100	0.373600
H321	H32	0.842700	0.637500	0.389600
H331	H33	0.727100	0.315700	0.316800
H341	H34	0.798100	0.216500	0.334200
H351	H35	0.020400	0.674500	0.490800
H361	H36	0.980300	0.701000	0.525200
H371	H37	0.100800	0.679400	0.572800
H381	H38	0.070000	0.747700	0.580800
H391	H39	0.109000	0.726200	0.545600
H401	H40	0.552500	0.830100	0.456600
H411	H41	0.515100	0.092100	0.461800
H421	H42	0.531500	0.115900	0.402000
H431	H43	0.581600	0.928600	0.356800
H441	H44	0.613500	0.845500	0.373600
H451	H45	0.546900	0.752100	0.389600
H461	H46	0.589700	0.001100	0.316800
H471	H47	0.536100	0.117700	0.334200
H481	H48	0.470400	0.816300	0.490800
H491	H49	0.544900	0.824200	0.525200
H501	H50	0.472000	0.893400	0.572800
H511	H51	0.510800	0.833100	0.580800
H521	H52	0.436600	0.819400	0.545600
H531	H53	0.373500	0.095900	0.543400
H541	H54	0.630300	0.053300	0.538200
H551	H55	0.713900	0.129500	0.598000
H561	H56	0.571800	0.224800	0.643200
H571	H57	0.471900	0.239900	0.626400
H581	H58	0.362500	0.157300	0.610400
H591	H59	0.684300	0.272900	0.683200
H601	H60	0.783500	0.201900	0.665800
H611	H61	0.325500	0.979600	0.509200
H621	H62	0.299000	0.019700	0.474800
H631	H63	0.320600	0.899200	0.427200
H641	H64	0.252300	0.930000	0.419200
H651	H65	0.273800	0.891000	0.454400
H661	H66	0.169900	0.447500	0.543400
H671	H67	0.907900	0.484900	0.538200
H681	H68	0.884100	0.468500	0.598000
H691	H69	0.071400	0.418400	0.643200
H701	H70	0.154500	0.386500	0.626400
H711	H71	0.247900	0.453100	0.610400
H721	H72	0.998900	0.410300	0.683200
H731	H73	0.882300	0.463900	0.665800
H741	H74	0.183700	0.529600	0.509200
H751	H75	0.175800	0.455100	0.474800
H761	H76	0.106600	0.528000	0.427200
H771	H77	0.166900	0.489200	0.419200
H781	H78	0.180600	0.563400	0.454400
H791	H79	0.697500	0.123500	0.043400
H801	H80	0.734900	0.380300	0.038200
H811	H81	0.718500	0.463900	0.098000
H821	H82	0.668400	0.321800	0.143200
H831	H83	0.636500	0.221900	0.126400
H841	H84	0.703100	0.112500	0.110400
H851	H85	0.660300	0.434300	0.183200
H861	H86	0.713900	0.533500	0.165800
H871	H87	0.779600	0.075500	0.009200
H881	H88	0.705100	0.049000	0.974800
H891	H89	0.778000	0.070600	0.927200
H901	H90	0.739200	0.002300	0.919200
H911	H91	0.813400	0.023800	0.954400
H921	H92	0.345900	0.919900	0.043400
H931	H93	0.303300	0.657900	0.038200
H941	H94	0.379500	0.634100	0.098000
H951	H95	0.474800	0.821400	0.143200
H961	H96	0.489900	0.904500	0.126400
H971	H97	0.407300	0.997900	0.110400
H981	H98	0.522900	0.748900	0.183200
H991	H99	0.451900	0.632300	0.165800
H1001	H100	0.229600	0.933700	0.009200
H1011	H101	0.269700	0.925800	0.974800
H1021	H102	0.149200	0.856600	0.927200
H1031	H103	0.180000	0.916900	0.919200
H1041	H104	0.141000	0.930600	0.954400
C11	C1	0.233600	0.711210	0.980480
C21	C2	0.171330	0.708170	0.984800
C31	C3	0.122220	0.656150	0.953640
C41	C4	0.135380	0.607180	0.918160
C51	C5	0.197650	0.610220	0.913840
C61	C6	0.246760	0.662240	0.945000
C71	C7	0.308360	0.662760	0.939720
C81	C8	0.323700	0.617400	0.904600
C91	C9	0.272570	0.565570	0.872540
C101	C10	0.211270	0.561070	0.877540
C111	C11	0.081880	0.551280	0.887160
C121	C12	0.018960	0.553360	0.876920
C131	C13	0.971380	0.489680	0.843160
C141	C14	0.284500	0.513700	0.833400
C151	C15	0.334160	0.511660	0.818920
C161	C16	0.341850	0.457750	0.781100
C171	C17	0.094060	0.767660	0.020720
C181	C18	0.097700	0.829500	0.058000
C191	C19	0.746880	0.269270	0.980480
C201	C20	0.813470	0.276630	0.984800
C211	C21	0.831420	0.297490	0.953640
C221	C22	0.782780	0.310980	0.918160
C231	C23	0.716190	0.303620	0.913840
C241	C24	0.698240	0.282760	0.945000
C251	C25	0.631360	0.276960	0.939720
C261	C26	0.580900	0.287200	0.904600
C271	C27	0.599970	0.306970	0.872540
C281	C28	0.666270	0.316470	0.877540
C291	C29	0.805280	0.335880	0.887160
C301	C30	0.857960	0.323560	0.876920
C311	C31	0.871780	0.353480	0.843160
C321	C32	0.548900	0.319700	0.833400
C331	C33	0.484760	0.307260	0.818920
C341	C34	0.439250	0.323350	0.781100
C351	C35	0.926660	0.253060	0.020720
C361	C36	0.960300	0.228500	0.058000
C371	C37	0.961210	0.496880	0.480480
C381	C38	0.958170	0.563470	0.484800
C391	C39	0.906150	0.581420	0.453640
C401	C40	0.857180	0.532780	0.418160
C411	C41	0.860220	0.466190	0.413840
C421	C42	0.912240	0.448240	0.445000
C431	C43	0.912760	0.381360	0.439720
C441	C44	0.867400	0.330900	0.404600
C451	C45	0.815570	0.349970	0.372540
C461	C46	0.811070	0.416270	0.377540
C471	C47	0.801280	0.555280	0.387160
C481	C48	0.803360	0.607960	0.376920
C491	C49	0.739680	0.621780	0.343160
C501	C50	0.763700	0.298900	0.333400
C511	C51	0.761660	0.234760	0.318920
C521	C52	0.707750	0.189250	0.281100
C531	C53	0.017660	0.676660	0.520720
C541	C54	0.079500	0.710300	0.558000
C551	C55	0.519270	0.983600	0.480480
C561	C56	0.526630	0.921330	0.484800
C571	C57	0.547490	0.872220	0.453640
C581	C58	0.560980	0.885380	0.418160
C591	C59	0.553620	0.947650	0.413840
C601	C60	0.532760	0.996760	0.445000
C611	C61	0.526960	0.058360	0.439720
C621	C62	0.537200	0.073700	0.404600
C631	C63	0.556970	0.022570	0.372540
C641	C64	0.566470	0.961270	0.377540
C651	C65	0.585880	0.831880	0.387160
C661	C66	0.573560	0.768960	0.376920
C671	C67	0.603480	0.721380	0.343160
C681	C68	0.569700	0.034500	0.333400
C691	C69	0.557260	0.084160	0.318920
C701	C70	0.573350	0.091850	0.281100
C711	C71	0.503060	0.844060	0.520720
C721	C72	0.478500	0.847700	0.558000
C731	C73	0.503120	0.038790	0.519520
C741	C74	0.436530	0.041830	0.515200
C751	C75	0.418580	0.093850	0.546360
C761	C76	0.467220	0.142820	0.581840
C771	C77	0.533810	0.139780	0.586160
C781	C78	0.551760	0.087760	0.555000
C791	C79	0.618640	0.087240	0.560280
C801	C80	0.669100	0.132600	0.595400
C811	C81	0.650030	0.184430	0.627460
C821	C82	0.583730	0.188930	0.622460
C831	C83	0.444720	0.198720	0.612840
C841	C84	0.392040	0.196640	0.623080
C851	C85	0.378220	0.260320	0.656840
C861	C86	0.701100	0.236300	0.666600
C871	C87	0.765240	0.238340	0.681080
C881	C88	0.810750	0.292250	0.718900
C891	C89	0.323340	0.982340	0.479280
C901	C90	0.289700	0.920500	0.442000
C911	C91	0.016400	0.480730	0.519520
C921	C92	0.078670	0.473370	0.515200
C931	C93	0.127780	0.452510	0.546360
C941	C94	0.114620	0.439020	0.581840
C951	C95	0.052350	0.446380	0.586160
C961	C96	0.003240	0.467240	0.555000
C971	C97	0.941640	0.473040	0.560280
C981	C98	0.926300	0.462800	0.595400
C991	C99	0.977430	0.443030	0.627460
C1001	C100	0.038730	0.433530	0.622460
C1011	C101	0.168120	0.414120	0.612840
C1021	C102	0.231040	0.426440	0.623080
C1031	C103	0.278620	0.396520	0.656840
C1041	C104	0.965500	0.430300	0.666600
C1051	C105	0.915840	0.442740	0.681080
C1061	C106	0.908150	0.426650	0.718900
C1071	C107	0.155940	0.496940	0.479280
C1081	C108	0.152300	0.521500	0.442000
C1091	C109	0.730730	0.253120	0.019520
C1101	C110	0.723370	0.186530	0.015200
C1111	C111	0.702510	0.168580	0.046360
C1121	C112	0.689020	0.217220	0.081840
C1131	C113	0.696380	0.283810	0.086160
C1141	C114	0.717240	0.301760	0.055000
C1151	C115	0.723040	0.368640	0.060280
C1161	C116	0.712800	0.419100	0.095400
C1171	C117	0.693030	0.400030	0.127460
C1181	C118	0.683530	0.333730	0.122460
C1191	C119	0.664120	0.194720	0.112840
C1201	C120	0.676440	0.142040	0.123080
C1211	C121	0.646520	0.128220	0.156840
C1221	C122	0.680300	0.451100	0.166600
C1231	C123	0.692740	0.515240	0.181080
C1241	C124	0.676650	0.560750	0.218900
C1251	C125	0.746940	0.073340	0.979280
C1261	C126	0.771500	0.039700	0.942000
C1271	C127	0.288790	0.766400	0.019520
C1281	C128	0.291830	0.828670	0.015200
C1291	C129	0.343850	0.877780	0.046360
C1301	C130	0.392820	0.864620	0.081840
C1311	C131	0.389780	0.802350	0.086160
C1321	C132	0.337760	0.753240	0.055000
C1331	C133	0.337240	0.691640	0.060280
C1341	C134	0.382600	0.676300	0.095400
C1351	C135	0.434430	0.727430	0.127460
C1361	C136	0.438930	0.788730	0.122460
C1371	C137	0.448720	0.918120	0.112840
C1381	C138	0.446640	0.981040	0.123080
C1391	C139	0.510320	0.028620	0.156840
C1401	C140	0.486300	0.715500	0.166600
C1411	C141	0.488340	0.665840	0.181080
C1421	C142	0.542250	0.658150	0.218900
C1431	C143	0.232340	0.905940	0.979280
C1441	C144	0.170500	0.902300	0.942000
O11	O1	0.910920	0.500030	0.827300
O21	O2	0.992810	0.435410	0.832480
O31	O3	0.391470	0.462900	0.768720
O41	O4	0.298850	0.406020	0.762840
O51	O5	0.161690	0.757800	0.021360
O61	O6	0.916380	0.327270	0.827300
O71	O7	0.839670	0.397070	0.832480
O81	O8	0.377250	0.305820	0.768720
O91	O9	0.463990	0.356820	0.762840
O101	O10	0.859670	0.263560	0.021360
O111	O11	0.750030	0.666380	0.327300
O121	O12	0.685410	0.589670	0.332480
O131	O13	0.712900	0.127250	0.268720
O141	O14	0.656020	0.213990	0.262840
O151	O15	0.007800	0.609670	0.521360
O161	O16	0.577270	0.660920	0.327300
O171	O17	0.647070	0.742810	0.332480
O181	O18	0.555820	0.141470	0.268720
O191	O19	0.606820	0.048850	0.262840
O201	O20	0.513560	0.911690	0.521360
O211	O21	0.333620	0.249970	0.672700
O221	O22	0.410330	0.314590	0.667520
O231	O23	0.872750	0.287100	0.731280
O241	O24	0.786010	0.343980	0.737160
O251	O25	0.390330	0.992200	0.478640
O261	O26	0.339080	0.422730	0.672700
O271	O27	0.257190	0.352930	0.667520
O281	O28	0.858530	0.444180	0.731280
O291	O29	0.951150	0.393180	0.737160
O301	O30	0.088310	0.486440	0.478640
O311	O31	0.672730	0.083620	0.172700
O321	O32	0.602930	0.160330	0.167520
O331	O33	0.694180	0.622750	0.231280
O341	O34	0.643180	0.536010	0.237160
O351	O35	0.736440	0.140330	0.978640
O361	O36	0.499970	0.089080	0.172700
O371	O37	0.564590	0.007190	0.167520
O381	O38	0.537100	0.608530	0.231280
O391	O39	0.593980	0.701150	0.237160
O401	O40	0.242200	0.838310	0.978640
