data_XAHPAZ_clean_PM
_symmetry_space_group_name_H-M	'P1'
_cell_length_a	15.712500
_cell_length_b	15.712500
_cell_length_c	26.135900
_cell_angle_alpha	107.493000
_cell_angle_beta	107.493000
_cell_angle_gamma	90.000000
_symmetry_Int_Tables_number 1

loop_
_symmetry_equiv_pos_as_xyz
'x,y,z'

loop_
_atom_site_label
_atom_site_type_symbol
_atom_site_fract_x
_atom_site_fract_y
_atom_site_fract_z
Cu11	Cu1	0.303300	0.296460	0.718260
Cu21	Cu2	0.414960	0.421800	0.718260
Cu31	Cu3	0.546460	0.164960	0.218260
Cu41	Cu4	0.671800	0.053300	0.218260
Cu51	Cu5	0.835040	0.453540	0.781740
Cu61	Cu6	0.946700	0.328200	0.781740
Cu71	Cu7	0.578200	0.585040	0.281740
Cu81	Cu8	0.703540	0.696700	0.281740
H11	H1	0.402700	0.606900	0.878600
H21	H2	0.007500	0.641800	0.937600
H31	H3	0.157400	0.472700	0.820000
H41	H4	0.369100	0.700700	0.952800
H51	H5	0.475900	0.271700	0.878600
H61	H6	0.930100	0.295800	0.937600
H71	H7	0.662600	0.347300	0.820000
H81	H8	0.583700	0.252100	0.952800
H91	H9	0.856900	0.225900	0.378600
H101	H10	0.891800	0.680100	0.437600
H111	H11	0.722700	0.412600	0.320000
H121	H12	0.950700	0.333700	0.452800
H131	H13	0.521700	0.152700	0.378600
H141	H14	0.545800	0.757500	0.437600
H151	H15	0.597300	0.907400	0.320000
H161	H16	0.502100	0.119100	0.452800
H171	H17	0.774100	0.143100	0.621400
H181	H18	0.319900	0.108200	0.562400
H191	H19	0.587400	0.277300	0.680000
H201	H20	0.666300	0.049300	0.547200
H211	H21	0.847300	0.478300	0.621400
H221	H22	0.242500	0.454200	0.562400
H231	H23	0.092600	0.402700	0.680000
H241	H24	0.880900	0.497900	0.547200
H251	H25	0.728300	0.524100	0.121400
H261	H26	0.704200	0.069900	0.062400
H271	H27	0.652700	0.337400	0.180000
H281	H28	0.747900	0.416300	0.047200
H291	H29	0.393100	0.597300	0.121400
H301	H30	0.358200	0.992500	0.062400
H311	H31	0.527300	0.842600	0.180000
H321	H32	0.299300	0.630900	0.047200
C11	C1	0.346300	0.599800	0.882200
C21	C2	0.282740	0.529740	0.841880
C31	C3	0.087570	0.577470	0.895740
C41	C4	0.217570	0.712070	0.976940
C51	C5	0.174460	0.580260	0.890920
C61	C6	0.239830	0.651230	0.932260
C71	C7	0.130630	0.707730	0.978260
C81	C8	0.066450	0.642050	0.937100
C91	C9	0.013220	0.507120	0.854640
C101	C10	0.198700	0.519600	0.846400
C111	C11	0.325360	0.656560	0.925920
C121	C12	0.308640	0.466340	0.794680
C131	C13	0.022300	0.803000	0.012800
C141	C14	0.023000	0.888500	0.057800
C151	C15	0.535900	0.282400	0.882200
C161	C16	0.559140	0.312140	0.841880
C171	C17	0.808170	0.318270	0.895740
C181	C18	0.759370	0.264870	0.976940
C191	C19	0.716460	0.310660	0.890920
C201	C20	0.692430	0.281030	0.932260
C211	C21	0.847630	0.270530	0.978260
C221	C22	0.870650	0.295050	0.937100
C231	C23	0.841420	0.347520	0.854640
C241	C24	0.647700	0.326800	0.846400
C251	C25	0.600560	0.269360	0.925920
C261	C26	0.486040	0.328340	0.794680
C271	C27	0.990500	0.209800	0.012800
C281	C28	0.034800	0.169300	0.057800
C291	C29	0.849800	0.285900	0.382200
C301	C30	0.779740	0.309140	0.341880
C311	C31	0.827470	0.558170	0.395740
C321	C32	0.962070	0.509370	0.476940
C331	C33	0.830260	0.466460	0.390920
C341	C34	0.901230	0.442430	0.432260
C351	C35	0.957730	0.597630	0.478260
C361	C36	0.892050	0.620650	0.437100
C371	C37	0.757120	0.591420	0.354640
C381	C38	0.769600	0.397700	0.346400
C391	C39	0.906560	0.350560	0.425920
C401	C40	0.716340	0.236040	0.294680
C411	C41	0.053000	0.740500	0.512800
C421	C42	0.138500	0.784800	0.557800
C431	C43	0.532400	0.096300	0.382200
C441	C44	0.562140	0.032740	0.341880
C451	C45	0.568270	0.837570	0.395740
C461	C46	0.514870	0.967570	0.476940
C471	C47	0.560660	0.924460	0.390920
C481	C48	0.531030	0.989830	0.432260
C491	C49	0.520530	0.880630	0.478260
C501	C50	0.545050	0.816450	0.437100
C511	C51	0.597520	0.763220	0.354640
C521	C52	0.576800	0.948700	0.346400
C531	C53	0.519360	0.075360	0.425920
C541	C54	0.578340	0.058640	0.294680
C551	C55	0.459800	0.772300	0.512800
C561	C56	0.419300	0.773000	0.557800
C571	C57	0.714100	0.150200	0.617800
C581	C58	0.690860	0.220260	0.658120
C591	C59	0.441830	0.172530	0.604260
C601	C60	0.490630	0.037930	0.523060
C611	C61	0.533540	0.169740	0.609080
C621	C62	0.557570	0.098770	0.567740
C631	C63	0.402370	0.042270	0.521740
C641	C64	0.379350	0.107950	0.562900
C651	C65	0.408580	0.242880	0.645360
C661	C66	0.602300	0.230400	0.653600
C671	C67	0.649440	0.093440	0.574080
C681	C68	0.763960	0.283660	0.705320
C691	C69	0.259500	0.947000	0.487200
C701	C70	0.215200	0.861500	0.442200
C711	C71	0.903700	0.467600	0.617800
C721	C72	0.967260	0.437860	0.658120
C731	C73	0.162430	0.431730	0.604260
C741	C74	0.032430	0.485130	0.523060
C751	C75	0.075540	0.439340	0.609080
C761	C76	0.010170	0.468970	0.567740
C771	C77	0.119370	0.479470	0.521740
C781	C78	0.183550	0.454950	0.562900
C791	C79	0.236780	0.402480	0.645360
C801	C80	0.051300	0.423200	0.653600
C811	C81	0.924640	0.480640	0.574080
C821	C82	0.941360	0.421660	0.705320
C831	C83	0.227700	0.540200	0.487200
C841	C84	0.227000	0.580700	0.442200
C851	C85	0.717600	0.464100	0.117800
C861	C86	0.687860	0.440860	0.158120
C871	C87	0.681730	0.191830	0.104260
C881	C88	0.735130	0.240630	0.023060
C891	C89	0.689340	0.283540	0.109080
C901	C90	0.718970	0.307570	0.067740
C911	C91	0.729470	0.152370	0.021740
C921	C92	0.704950	0.129350	0.062900
C931	C93	0.652480	0.158580	0.145360
C941	C94	0.673200	0.352300	0.153600
C951	C95	0.730640	0.399440	0.074080
C961	C96	0.671660	0.513960	0.205320
C971	C97	0.790200	0.009500	0.987200
C981	C98	0.830700	0.965200	0.942200
C991	C99	0.400200	0.653700	0.117800
C1001	C100	0.470260	0.717260	0.158120
C1011	C101	0.422530	0.912430	0.104260
C1021	C102	0.287930	0.782430	0.023060
C1031	C103	0.419740	0.825540	0.109080
C1041	C104	0.348770	0.760170	0.067740
C1051	C105	0.292270	0.869370	0.021740
C1061	C106	0.357950	0.933550	0.062900
C1071	C107	0.492880	0.986780	0.145360
C1081	C108	0.480400	0.801300	0.153600
C1091	C109	0.343440	0.674640	0.074080
C1101	C110	0.533660	0.691360	0.205320
C1111	C111	0.197000	0.977700	0.987200
C1121	C112	0.111500	0.977000	0.942200
O11	O1	0.262830	0.390900	0.770640
O21	O2	0.373870	0.490380	0.782600
O31	O3	0.030230	0.427230	0.844440
O41	O4	0.939580	0.534700	0.834580
O51	O5	0.113530	0.770830	0.022460
O61	O6	0.507810	0.379740	0.770640
O71	O7	0.408730	0.292220	0.782600
O81	O8	0.814210	0.417210	0.844440
O91	O9	0.895000	0.299880	0.834580
O101	O10	0.908930	0.251630	0.022460
O111	O11	0.640900	0.257810	0.270640
O121	O12	0.740380	0.158730	0.282600
O131	O13	0.677230	0.564210	0.344440
O141	O14	0.784700	0.645000	0.334580
O151	O15	0.020830	0.658930	0.522460
O161	O16	0.629740	0.012830	0.270640
O171	O17	0.542220	0.123870	0.282600
O181	O18	0.667210	0.780230	0.344440
O191	O19	0.549880	0.689580	0.334580
O201	O20	0.501630	0.863530	0.522460
O211	O21	0.742190	0.359100	0.729360
O221	O22	0.841270	0.259620	0.717400
O231	O23	0.435790	0.322770	0.655560
O241	O24	0.355000	0.215300	0.665420
O251	O25	0.341070	0.979170	0.477540
O261	O26	0.987170	0.370260	0.729360
O271	O27	0.876130	0.457780	0.717400
O281	O28	0.219770	0.332790	0.655560
O291	O29	0.310420	0.450120	0.665420
O301	O30	0.136470	0.498370	0.477540
O311	O31	0.620260	0.492190	0.229360
O321	O32	0.707780	0.591270	0.217400
O331	O33	0.582790	0.185790	0.155560
O341	O34	0.700120	0.105000	0.165420
O351	O35	0.748370	0.091070	0.977540
O361	O36	0.609100	0.737170	0.229360
O371	O37	0.509620	0.626130	0.217400
O381	O38	0.572770	0.969770	0.155560
O391	O39	0.465300	0.060420	0.165420
O401	O40	0.229170	0.886470	0.977540
