data_XAHQAA_clean_PM
_symmetry_space_group_name_H-M	'P1'
_cell_length_a	30.781600
_cell_length_b	30.781600
_cell_length_c	46.244100
_cell_angle_alpha	109.440000
_cell_angle_beta	109.440000
_cell_angle_gamma	90.000200
_symmetry_Int_Tables_number 1

loop_
_symmetry_equiv_pos_as_xyz
'x,y,z'

loop_
_atom_site_label
_atom_site_type_symbol
_atom_site_fract_x
_atom_site_fract_y
_atom_site_fract_z
Cu11	Cu1	0.417770	0.862270	0.778740
Cu21	Cu2	0.360970	0.916470	0.778740
Cu31	Cu3	0.112270	0.110970	0.278740
Cu41	Cu4	0.166470	0.167770	0.278740
Cu51	Cu5	0.889030	0.887730	0.721260
Cu61	Cu6	0.832230	0.833530	0.721260
Cu71	Cu7	0.083530	0.639030	0.221260
Cu81	Cu8	0.137730	0.582230	0.221260
H11	H1	0.605700	0.010700	0.888400
H21	H2	0.547300	0.951700	0.850400
H31	H3	0.453500	0.042400	0.853200
H41	H4	0.512000	0.101400	0.891200
H51	H5	0.764000	0.987300	0.834200
H61	H6	0.773100	0.926800	0.791400
H71	H7	0.883800	0.002900	0.797200
H81	H8	0.874700	0.063300	0.840000
H91	H9	0.648300	0.168200	0.971800
H101	H10	0.708300	0.080900	0.897000
H111	H11	0.836900	0.141800	0.922800
H121	H12	0.826600	0.199100	0.968000
H131	H13	0.654900	0.069400	0.906600
H141	H14	0.592900	0.128600	0.928600
H151	H15	0.753600	0.041100	0.864800
H161	H16	0.837900	0.098400	0.880600
H171	H17	0.282700	0.877700	0.888400
H181	H18	0.303100	0.898700	0.850400
H191	H19	0.399700	0.810800	0.853200
H201	H20	0.379200	0.789800	0.891200
H211	H21	0.070200	0.846900	0.834200
H221	H22	0.018300	0.864600	0.791400
H231	H23	0.913400	0.794300	0.797200
H241	H24	0.965300	0.776700	0.840000
H251	H25	0.323500	0.803600	0.971800
H261	H26	0.188700	0.816100	0.897000
H271	H27	0.085900	0.781000	0.922800
H281	H28	0.141400	0.768900	0.968000
H291	H29	0.251700	0.837200	0.906600
H301	H30	0.335700	0.800000	0.928600
H311	H31	0.111200	0.823700	0.864800
H321	H32	0.042700	0.782200	0.880600
H331	H33	0.260700	0.032700	0.388400
H341	H34	0.201700	0.053100	0.350400
H351	H35	0.292400	0.149700	0.353200
H361	H36	0.351400	0.129200	0.391200
H371	H37	0.237300	0.820200	0.334200
H381	H38	0.176800	0.768300	0.291400
H391	H39	0.252900	0.663400	0.297200
H401	H40	0.313300	0.715300	0.340000
H411	H41	0.418200	0.073500	0.471800
H421	H42	0.330900	0.938700	0.397000
H431	H43	0.391800	0.835900	0.422800
H441	H44	0.449100	0.891400	0.468000
H451	H45	0.319400	0.001700	0.406600
H461	H46	0.378600	0.085700	0.428600
H471	H47	0.291100	0.861200	0.364800
H481	H48	0.348400	0.792700	0.380600
H491	H49	0.127700	0.355700	0.388400
H501	H50	0.148700	0.297300	0.350400
H511	H51	0.060800	0.203500	0.353200
H521	H52	0.039800	0.262000	0.391200
H531	H53	0.096900	0.514000	0.334200
H541	H54	0.114600	0.523100	0.291400
H551	H55	0.044300	0.633800	0.297200
H561	H56	0.026700	0.624700	0.340000
H571	H57	0.053600	0.398300	0.471800
H581	H58	0.066100	0.458300	0.397000
H591	H59	0.031000	0.586900	0.422800
H601	H60	0.018900	0.576600	0.468000
H611	H61	0.087200	0.404900	0.406600
H621	H62	0.050000	0.342900	0.428600
H631	H63	0.073700	0.503600	0.364800
H641	H64	0.032200	0.587900	0.380600
H651	H65	0.967300	0.739300	0.611600
H661	H66	0.946900	0.798300	0.649600
H671	H67	0.850300	0.707600	0.646800
H681	H68	0.870800	0.648600	0.608800
H691	H69	0.179800	0.762700	0.665800
H701	H70	0.231700	0.823200	0.708600
H711	H71	0.336600	0.747100	0.702800
H721	H72	0.284700	0.686700	0.660000
H731	H73	0.926500	0.581800	0.528200
H741	H74	0.061300	0.669100	0.603000
H751	H75	0.164100	0.608200	0.577200
H761	H76	0.108600	0.550900	0.532000
H771	H77	0.998300	0.680600	0.593400
H781	H78	0.914300	0.621400	0.571400
H791	H79	0.138800	0.708900	0.635200
H801	H80	0.207300	0.651600	0.619400
H811	H81	0.644300	0.872300	0.611600
H821	H82	0.702700	0.851300	0.649600
H831	H83	0.796500	0.939200	0.646800
H841	H84	0.738000	0.960200	0.608800
H851	H85	0.486000	0.903100	0.665800
H861	H86	0.476900	0.885400	0.708600
H871	H87	0.366200	0.955700	0.702800
H881	H88	0.375300	0.973300	0.660000
H891	H89	0.601700	0.946400	0.528200
H901	H90	0.541700	0.933900	0.603000
H911	H91	0.413100	0.969000	0.577200
H921	H92	0.423400	0.981100	0.532000
H931	H93	0.595100	0.912800	0.593400
H941	H94	0.657100	0.950000	0.571400
H951	H95	0.496400	0.926300	0.635200
H961	H96	0.412100	0.967800	0.619400
H971	H97	0.122300	0.717300	0.111600
H981	H98	0.101300	0.696900	0.149600
H991	H99	0.189200	0.600300	0.146800
H1001	H100	0.210200	0.620800	0.108800
H1011	H101	0.153100	0.929800	0.165800
H1021	H102	0.135400	0.981700	0.208600
H1031	H103	0.205700	0.086600	0.202800
H1041	H104	0.223300	0.034700	0.160000
H1051	H105	0.196400	0.676500	0.028200
H1061	H106	0.183900	0.811300	0.103000
H1071	H107	0.219000	0.914100	0.077200
H1081	H108	0.231100	0.858600	0.032000
H1091	H109	0.162800	0.748300	0.093400
H1101	H110	0.200000	0.664300	0.071400
H1111	H111	0.176300	0.888800	0.135200
H1121	H112	0.217800	0.957300	0.119400
H1131	H113	0.989300	0.394300	0.111600
H1141	H114	0.048300	0.452700	0.149600
H1151	H115	0.957600	0.546500	0.146800
H1161	H116	0.898600	0.488000	0.108800
H1171	H117	0.012700	0.236000	0.165800
H1181	H118	0.073200	0.226900	0.208600
H1191	H119	0.997100	0.116200	0.202800
H1201	H120	0.936700	0.125300	0.160000
H1211	H121	0.831800	0.351700	0.028200
H1221	H122	0.919100	0.291700	0.103000
H1231	H123	0.858200	0.163100	0.077200
H1241	H124	0.800900	0.173400	0.032000
H1251	H125	0.930600	0.345100	0.093400
H1261	H126	0.871400	0.407100	0.071400
H1271	H127	0.958900	0.246400	0.135200
H1281	H128	0.901600	0.162100	0.119400
C11	C1	0.564640	0.061840	0.893480
C21	C2	0.575200	0.017100	0.881400
C31	C3	0.540200	0.981700	0.858600
C41	C4	0.494630	0.991230	0.848060
C51	C5	0.484000	0.036000	0.860200
C61	C6	0.519000	0.071400	0.883000
C71	C7	0.454900	0.951400	0.822800
C81	C8	0.818390	0.031290	0.841380
C91	C9	0.788000	0.990400	0.826800
C101	C10	0.793500	0.954200	0.801200
C111	C11	0.829340	0.958840	0.790080
C121	C12	0.859800	0.999700	0.804600
C131	C13	0.854300	0.035900	0.830200
C141	C14	0.838600	0.923400	0.763400
C151	C15	0.753790	0.208190	0.985980
C161	C16	0.711530	0.205830	0.990460
C171	C17	0.676500	0.169800	0.968800
C181	C18	0.683980	0.136080	0.942760
C191	C19	0.726250	0.138450	0.938300
C201	C20	0.761100	0.174400	0.959800
C211	C21	0.732500	0.104300	0.911200
C221	C22	0.774300	0.104800	0.905200
C231	C23	0.809000	0.140400	0.926400
C241	C24	0.802500	0.175300	0.953800
C251	C25	0.647100	0.096600	0.919200
C261	C26	0.600800	0.101300	0.916400
C271	C27	0.776300	0.066600	0.876800
C281	C28	0.815800	0.072300	0.869400
C291	C29	0.328840	0.831640	0.893480
C301	C30	0.306200	0.864300	0.881400
C311	C31	0.318400	0.876900	0.858600
C321	C32	0.353430	0.856830	0.848060
C331	C33	0.376200	0.824200	0.860200
C341	C34	0.364000	0.811600	0.883000
C351	C35	0.367900	0.871400	0.822800
C361	C36	0.022990	0.810090	0.841380
C371	C37	0.038800	0.836400	0.826800
C381	C38	0.007700	0.847000	0.801200
C391	C39	0.960740	0.831240	0.790080
C401	C40	0.944800	0.804900	0.804600
C411	C41	0.975900	0.794300	0.830200
C421	C42	0.924800	0.840000	0.763400
C431	C43	0.232190	0.777790	0.985980
C441	C44	0.278930	0.784630	0.990460
C451	C45	0.292300	0.799000	0.968800
C461	C46	0.258780	0.806680	0.942760
C471	C47	0.212050	0.799850	0.938300
C481	C48	0.198700	0.785400	0.959800
C491	C49	0.178700	0.806900	0.911200
C501	C50	0.130900	0.800400	0.905200
C511	C51	0.117400	0.786000	0.926400
C521	C52	0.151300	0.778500	0.953800
C531	C53	0.272100	0.822600	0.919200
C541	C54	0.315600	0.815100	0.916400
C551	C55	0.100500	0.810200	0.876800
C561	C56	0.053600	0.797100	0.869400
C571	C57	0.311840	0.078840	0.393480
C581	C58	0.267100	0.056200	0.381400
C591	C59	0.231700	0.068400	0.358600
C601	C60	0.241230	0.103430	0.348060
C611	C61	0.286000	0.126200	0.360200
C621	C62	0.321400	0.114000	0.383000
C631	C63	0.201400	0.117900	0.322800
C641	C64	0.281290	0.772990	0.341380
C651	C65	0.240400	0.788800	0.326800
C661	C66	0.204200	0.757700	0.301200
C671	C67	0.208840	0.710740	0.290080
C681	C68	0.249700	0.694800	0.304600
C691	C69	0.285900	0.725900	0.330200
C701	C70	0.173400	0.674800	0.263400
C711	C71	0.458190	0.982190	0.485980
C721	C72	0.455830	0.028930	0.490460
C731	C73	0.419800	0.042300	0.468800
C741	C74	0.386080	0.008780	0.442760
C751	C75	0.388450	0.962050	0.438300
C761	C76	0.424400	0.948700	0.459800
C771	C77	0.354300	0.928700	0.411200
C781	C78	0.354800	0.880900	0.405200
C791	C79	0.390400	0.867400	0.426400
C801	C80	0.425300	0.901300	0.453800
C811	C81	0.346600	0.022100	0.419200
C821	C82	0.351300	0.065600	0.416400
C831	C83	0.316600	0.850500	0.376800
C841	C84	0.322300	0.803600	0.369400
C851	C85	0.081640	0.314640	0.393480
C861	C86	0.114300	0.325200	0.381400
C871	C87	0.126900	0.290200	0.358600
C881	C88	0.106830	0.244630	0.348060
C891	C89	0.074200	0.234000	0.360200
C901	C90	0.061600	0.269000	0.383000
C911	C91	0.121400	0.204900	0.322800
C921	C92	0.060090	0.568390	0.341380
C931	C93	0.086400	0.538000	0.326800
C941	C94	0.097000	0.543500	0.301200
C951	C95	0.081240	0.579340	0.290080
C961	C96	0.054900	0.609800	0.304600
C971	C97	0.044300	0.604300	0.330200
C981	C98	0.090000	0.588600	0.263400
C991	C99	0.027790	0.503790	0.485980
C1001	C100	0.034630	0.461530	0.490460
C1011	C101	0.049000	0.426500	0.468800
C1021	C102	0.056680	0.433980	0.442760
C1031	C103	0.049850	0.476250	0.438300
C1041	C104	0.035400	0.511100	0.459800
C1051	C105	0.056900	0.482500	0.411200
C1061	C106	0.050400	0.524300	0.405200
C1071	C107	0.036000	0.559000	0.426400
C1081	C108	0.028500	0.552500	0.453800
C1091	C109	0.072600	0.397100	0.419200
C1101	C110	0.065100	0.350800	0.416400
C1111	C111	0.060200	0.526300	0.376800
C1121	C112	0.047100	0.565800	0.369400
C1131	C113	0.921160	0.688160	0.606520
C1141	C114	0.943800	0.732900	0.618600
C1151	C115	0.931600	0.768300	0.641400
C1161	C116	0.896570	0.758770	0.651940
C1171	C117	0.873800	0.714000	0.639800
C1181	C118	0.886000	0.678600	0.617000
C1191	C119	0.882100	0.798600	0.677200
C1201	C120	0.227010	0.718710	0.658620
C1211	C121	0.211200	0.759600	0.673200
C1221	C122	0.242300	0.795800	0.698800
C1231	C123	0.289260	0.791160	0.709920
C1241	C124	0.305200	0.750300	0.695400
C1251	C125	0.274100	0.714100	0.669800
C1261	C126	0.325200	0.826600	0.736600
C1271	C127	0.017810	0.541810	0.514020
C1281	C128	0.971070	0.544170	0.509540
C1291	C129	0.957700	0.580200	0.531200
C1301	C130	0.991220	0.613920	0.557240
C1311	C131	0.037950	0.611550	0.561700
C1321	C132	0.051300	0.575600	0.540200
C1331	C133	0.071300	0.645700	0.588800
C1341	C134	0.119100	0.645200	0.594800
C1351	C135	0.132600	0.609600	0.573600
C1361	C136	0.098700	0.574700	0.546200
C1371	C137	0.977900	0.653400	0.580800
C1381	C138	0.934400	0.648700	0.583600
C1391	C139	0.149500	0.683400	0.623200
C1401	C140	0.196400	0.677700	0.630600
C1411	C141	0.685360	0.918360	0.606520
C1421	C142	0.674800	0.885700	0.618600
C1431	C143	0.709800	0.873100	0.641400
C1441	C144	0.755370	0.893170	0.651940
C1451	C145	0.766000	0.925800	0.639800
C1461	C146	0.731000	0.938400	0.617000
C1471	C147	0.795100	0.878600	0.677200
C1481	C148	0.431610	0.939910	0.658620
C1491	C149	0.462000	0.913600	0.673200
C1501	C150	0.456500	0.903000	0.698800
C1511	C151	0.420660	0.918760	0.709920
C1521	C152	0.390200	0.945100	0.695400
C1531	C153	0.395700	0.955700	0.669800
C1541	C154	0.411400	0.910000	0.736600
C1551	C155	0.496210	0.972210	0.514020
C1561	C156	0.538470	0.965370	0.509540
C1571	C157	0.573500	0.951000	0.531200
C1581	C158	0.566020	0.943320	0.557240
C1591	C159	0.523750	0.950150	0.561700
C1601	C160	0.488900	0.964600	0.540200
C1611	C161	0.517500	0.943100	0.588800
C1621	C162	0.475700	0.949600	0.594800
C1631	C163	0.441000	0.964000	0.573600
C1641	C164	0.447500	0.971500	0.546200
C1651	C165	0.602900	0.927400	0.580800
C1661	C166	0.649200	0.934900	0.583600
C1671	C167	0.473700	0.939800	0.623200
C1681	C168	0.434200	0.952900	0.630600
C1691	C169	0.168360	0.671160	0.106520
C1701	C170	0.135700	0.693800	0.118600
C1711	C171	0.123100	0.681600	0.141400
C1721	C172	0.143170	0.646570	0.151940
C1731	C173	0.175800	0.623800	0.139800
C1741	C174	0.188400	0.636000	0.117000
C1751	C175	0.128600	0.632100	0.177200
C1761	C176	0.189910	0.977010	0.158620
C1771	C177	0.163600	0.961200	0.173200
C1781	C178	0.153000	0.992300	0.198800
C1791	C179	0.168760	0.039260	0.209920
C1801	C180	0.195100	0.055200	0.195400
C1811	C181	0.205700	0.024100	0.169800
C1821	C182	0.160000	0.075200	0.236600
C1831	C183	0.222210	0.767810	0.014020
C1841	C184	0.215370	0.721070	0.009540
C1851	C185	0.201000	0.707700	0.031200
C1861	C186	0.193320	0.741220	0.057240
C1871	C187	0.200150	0.787950	0.061700
C1881	C188	0.214600	0.801300	0.040200
C1891	C189	0.193100	0.821300	0.088800
C1901	C190	0.199600	0.869100	0.094800
C1911	C191	0.214000	0.882600	0.073600
C1921	C192	0.221500	0.848700	0.046200
C1931	C193	0.177400	0.727900	0.080800
C1941	C194	0.184900	0.684400	0.083600
C1951	C195	0.189800	0.899500	0.123200
C1961	C196	0.202900	0.946400	0.130600
C1971	C197	0.938160	0.435360	0.106520
C1981	C198	0.982900	0.424800	0.118600
C1991	C199	0.018300	0.459800	0.141400
C2001	C200	0.008770	0.505370	0.151940
C2011	C201	0.964000	0.516000	0.139800
C2021	C202	0.928600	0.481000	0.117000
C2031	C203	0.048600	0.545100	0.177200
C2041	C204	0.968710	0.181610	0.158620
C2051	C205	0.009600	0.212000	0.173200
C2061	C206	0.045800	0.206500	0.198800
C2071	C207	0.041160	0.170660	0.209920
C2081	C208	0.000300	0.140200	0.195400
C2091	C209	0.964100	0.145700	0.169800
C2101	C210	0.076600	0.161400	0.236600
C2111	C211	0.791810	0.246210	0.014020
C2121	C212	0.794170	0.288470	0.009540
C2131	C213	0.830200	0.323500	0.031200
C2141	C214	0.863920	0.316020	0.057240
C2151	C215	0.861550	0.273750	0.061700
C2161	C216	0.825600	0.238900	0.040200
C2171	C217	0.895700	0.267500	0.088800
C2181	C218	0.895200	0.225700	0.094800
C2191	C219	0.859600	0.191000	0.073600
C2201	C220	0.824700	0.197500	0.046200
C2211	C221	0.903400	0.352900	0.080800
C2221	C222	0.898700	0.399200	0.083600
C2231	C223	0.933400	0.223700	0.123200
C2241	C224	0.927700	0.184200	0.130600
O11	O1	0.466000	0.910200	0.814000
O21	O2	0.414400	0.958900	0.812000
O31	O3	0.873400	0.931600	0.755400
O41	O4	0.815500	0.883800	0.747800
O51	O5	0.703400	0.239600	0.015200
O61	O6	0.348000	0.903800	0.814000
O71	O7	0.397600	0.853100	0.812000
O81	O8	0.882000	0.823800	0.755400
O91	O9	0.932300	0.864000	0.747800
O101	O10	0.311800	0.775600	0.015200
O111	O11	0.160200	0.098000	0.314000
O121	O12	0.208900	0.147600	0.312000
O131	O13	0.181600	0.632000	0.255400
O141	O14	0.133800	0.682300	0.247800
O151	O15	0.489600	0.061800	0.515200
O161	O16	0.153800	0.216000	0.314000
O171	O17	0.103100	0.164400	0.312000
O181	O18	0.073800	0.623400	0.255400
O191	O19	0.114000	0.565500	0.247800
O201	O20	0.025600	0.453400	0.515200
O211	O21	0.902000	0.839800	0.686000
O221	O22	0.852400	0.791100	0.688000
O231	O23	0.368000	0.818400	0.744600
O241	O24	0.317700	0.866200	0.752200
O251	O25	0.938200	0.510400	0.484800
O261	O26	0.784000	0.846200	0.686000
O271	O27	0.835600	0.896900	0.688000
O281	O28	0.376600	0.926200	0.744600
O291	O29	0.434500	0.886000	0.752200
O301	O30	0.546600	0.974400	0.484800
O311	O31	0.096200	0.652000	0.186000
O321	O32	0.146900	0.602400	0.188000
O331	O33	0.176200	0.118000	0.244600
O341	O34	0.136000	0.067700	0.252200
O351	O35	0.224400	0.688200	0.984800
O361	O36	0.089800	0.534000	0.186000
O371	O37	0.041100	0.585600	0.188000
O381	O38	0.068400	0.126600	0.244600
O391	O39	0.116200	0.184500	0.252200
O401	O40	0.760400	0.296600	0.984800
