data_XAHWAG_clean_PM
_symmetry_space_group_name_H-M	'P1'
_cell_length_a	11.242000
_cell_length_b	14.367000
_cell_length_c	16.751000
_cell_angle_alpha	90.000000
_cell_angle_beta	109.518000
_cell_angle_gamma	90.000000
_symmetry_Int_Tables_number 1

loop_
_symmetry_equiv_pos_as_xyz
'x,y,z'

loop_
_atom_site_label
_atom_site_type_symbol
_atom_site_fract_x
_atom_site_fract_y
_atom_site_fract_z
O11	O1	0.789100	0.139300	0.041200
O21	O2	0.799400	0.208200	0.181400
O31	O3	0.490600	0.116600	0.041700
O41	O4	0.411300	0.972100	0.098100
O51	O5	0.614100	0.044300	0.182800
O61	O6	0.685000	0.296400	0.826600
O71	O7	0.556500	0.243200	0.914500
O81	O8	0.705100	0.379100	0.964600
O91	O9	0.096300	0.994600	0.405600
O101	O10	0.874500	0.045900	0.325300
O111	O11	0.997800	0.121300	0.464400
O121	O12	0.934600	0.272800	0.103600
P11	P1	0.866800	0.188300	0.119800
P21	P2	0.488400	0.061200	0.118200
P31	P3	0.620800	0.324100	0.889600
P41	P4	0.004500	0.073900	0.386000
Zn11	Zn1	0.608230	0.129180	0.980160
Zn21	Zn2	0.742160	0.125390	0.253300
Zn31	Zn3	0.882340	0.379330	0.027510
O131	O13	0.210900	0.639300	0.458800
O141	O14	0.200600	0.708200	0.318600
O151	O15	0.509400	0.616600	0.458300
O161	O16	0.588700	0.472100	0.401900
O171	O17	0.385900	0.544300	0.317200
O181	O18	0.315000	0.796400	0.673400
O191	O19	0.443500	0.743200	0.585500
O201	O20	0.294900	0.879100	0.535400
O211	O21	0.903700	0.494600	0.094400
O221	O22	0.125500	0.545900	0.174700
O231	O23	0.002200	0.621300	0.035600
O241	O24	0.065400	0.772800	0.396400
P51	P5	0.133200	0.688300	0.380200
P61	P6	0.511600	0.561200	0.381800
P71	P7	0.379200	0.824100	0.610400
P81	P8	0.995500	0.573900	0.114000
Zn41	Zn4	0.391770	0.629180	0.519840
Zn51	Zn5	0.257840	0.625390	0.246700
Zn61	Zn6	0.117660	0.879330	0.472490
O251	O25	0.210900	0.860700	0.958800
O261	O26	0.200600	0.791800	0.818600
O271	O27	0.509400	0.883400	0.958300
O281	O28	0.588700	0.027900	0.901900
O291	O29	0.385900	0.955700	0.817200
O301	O30	0.315000	0.703600	0.173400
O311	O31	0.443500	0.756800	0.085500
O321	O32	0.294900	0.620900	0.035400
O331	O33	0.903700	0.005400	0.594400
O341	O34	0.125500	0.954100	0.674700
O351	O35	0.002200	0.878700	0.535600
O361	O36	0.065400	0.727200	0.896400
P91	P9	0.133200	0.811700	0.880200
P101	P10	0.511600	0.938800	0.881800
P111	P11	0.379200	0.675900	0.110400
P121	P12	0.995500	0.926100	0.614000
Zn71	Zn7	0.391770	0.870820	0.019840
Zn81	Zn8	0.257840	0.874610	0.746700
Zn91	Zn9	0.117660	0.620670	0.972490
O371	O37	0.789100	0.360700	0.541200
O381	O38	0.799400	0.291800	0.681400
O391	O39	0.490600	0.383400	0.541700
O401	O40	0.411300	0.527900	0.598100
O411	O41	0.614100	0.455700	0.682800
O421	O42	0.685000	0.203600	0.326600
O431	O43	0.556500	0.256800	0.414500
O441	O44	0.705100	0.120900	0.464600
O451	O45	0.096300	0.505400	0.905600
O461	O46	0.874500	0.454100	0.825300
O471	O47	0.997800	0.378700	0.964400
O481	O48	0.934600	0.227200	0.603600
P131	P13	0.866800	0.311700	0.619800
P141	P14	0.488400	0.438800	0.618200
P151	P15	0.620800	0.175900	0.389600
P161	P16	0.004500	0.426100	0.886000
Zn101	Zn10	0.608230	0.370820	0.480160
Zn111	Zn11	0.742160	0.374610	0.753300
Zn121	Zn12	0.882340	0.120670	0.527510
