data_XAJGOH_clean_PM
_symmetry_space_group_name_H-M	'P1'
_cell_length_a	22.286000
_cell_length_b	22.725000
_cell_length_c	14.056000
_cell_angle_alpha	90.000000
_cell_angle_beta	90.000000
_cell_angle_gamma	90.000000
_symmetry_Int_Tables_number 1

loop_
_symmetry_equiv_pos_as_xyz
'x,y,z'

loop_
_atom_site_label
_atom_site_type_symbol
_atom_site_fract_x
_atom_site_fract_y
_atom_site_fract_z
Co11	Co1	0.174470	0.205080	0.961540
O11	O1	0.203860	0.286490	0.013520
O21	O2	0.119240	0.340160	0.017500
O31	O3	0.321990	0.334830	0.596650
O41	O4	0.413860	0.322020	0.657860
N11	N1	0.265740	0.181970	0.936200
N21	N2	0.350600	0.133180	0.910850
N31	N3	0.630930	0.801050	0.793490
N41	N4	0.668310	0.743290	0.681880
N51	N5	0.143230	0.123660	0.903790
N61	N6	0.104220	0.063160	0.797120
C11	C1	0.174630	0.332680	0.030200
C21	C2	0.209370	0.383820	0.072400
C31	C3	0.263710	0.405090	0.034300
C41	C4	0.294040	0.449730	0.082600
H11	H1	0.330400	0.463500	0.058800
C51	C5	0.270820	0.473980	0.165700
H21	H2	0.291600	0.503800	0.196900
C61	C6	0.217320	0.454000	0.201800
H31	H3	0.201800	0.470300	0.257200
C71	C7	0.186240	0.409210	0.155300
H41	H4	0.149800	0.396100	0.179600
C81	C8	0.288200	0.384950	0.940500
C91	C9	0.348830	0.370210	0.929900
H51	H5	0.374000	0.370700	0.982700
C101	C10	0.371860	0.354790	0.841200
H61	H6	0.412200	0.345000	0.835600
C111	C11	0.335280	0.353770	0.760800
C121	C12	0.274890	0.368290	0.771400
H71	H7	0.249700	0.367400	0.718700
C131	C13	0.251820	0.384010	0.859700
H81	H8	0.211500	0.394100	0.865000
C141	C14	0.358920	0.335210	0.664100
C151	C15	0.294070	0.131470	0.946200
H91	H9	0.277200	0.098400	0.974400
C161	C16	0.306110	0.218300	0.892100
H101	H10	0.298700	0.257200	0.875500
C171	C17	0.358460	0.189550	0.876100
H111	H11	0.392800	0.204700	0.847500
C181	C18	0.392510	0.085780	0.905600
C191	C19	0.450800	0.096040	0.875700
H121	H12	0.462800	0.134000	0.860100
C201	C20	0.491340	0.049840	0.869000
H131	H13	0.530400	0.057700	0.849700
C211	C21	0.475490	0.992450	0.890100
C221	C22	0.417020	0.983070	0.922500
H141	H14	0.405300	0.945200	0.939200
C231	C23	0.375810	0.028780	0.930500
H151	H15	0.337200	0.021300	0.952500
C241	C24	0.518440	0.942880	0.875700
C251	C25	0.573740	0.952140	0.832400
H161	H16	0.585400	0.990400	0.817800
C261	C26	0.611930	0.906140	0.810500
H171	H17	0.648800	0.913600	0.782000
C271	C27	0.595140	0.849160	0.831100
C281	C28	0.542180	0.838710	0.878200
H181	H18	0.531600	0.800500	0.894800
C291	C29	0.504560	0.885060	0.900800
H191	H19	0.469100	0.877500	0.933600
C301	C30	0.632240	0.787780	0.699500
H201	H20	0.610400	0.807700	0.653200
C311	C31	0.691790	0.727510	0.769700
H211	H21	0.719300	0.697400	0.779900
C321	C32	0.668390	0.762910	0.839000
H221	H22	0.676400	0.761300	0.903900
C331	C33	0.113820	0.119530	0.823000
H231	H23	0.101100	0.151800	0.787700
C341	C34	0.152680	0.066920	0.932200
H241	H24	0.172200	0.055900	0.987800
C351	C35	0.129500	0.029270	0.867700
H251	H25	0.130400	0.988400	0.870300
C361	C36	0.074160	0.044830	0.712200
C371	C37	0.069360	0.985940	0.689900
H261	H26	0.085500	0.957700	0.730400
C381	C38	0.040390	0.968740	0.607100
H271	H27	0.037600	0.928800	0.593100
C391	C39	0.015320	0.009200	0.544200
C401	C40	0.020650	0.068240	0.569700
H281	H28	0.004300	0.096700	0.529800
C411	C41	0.049130	0.085990	0.651200
H291	H29	0.051700	0.125800	0.665700
Co21	Co2	0.325530	0.294920	0.461540
O51	O5	0.296140	0.213510	0.513520
O61	O6	0.380760	0.159840	0.517500
O71	O7	0.178010	0.165170	0.096650
O81	O8	0.086140	0.177980	0.157860
N71	N7	0.234260	0.318030	0.436200
N81	N8	0.149400	0.366820	0.410850
N91	N9	0.869070	0.698950	0.293490
N101	N10	0.831690	0.756710	0.181880
N111	N11	0.356770	0.376340	0.403790
N121	N12	0.395780	0.436840	0.297120
C421	C42	0.325370	0.167320	0.530200
C431	C43	0.290630	0.116180	0.572400
C441	C44	0.236290	0.094910	0.534300
C451	C45	0.205960	0.050270	0.582600
H301	H30	0.169600	0.036500	0.558800
C461	C46	0.229180	0.026020	0.665700
H311	H31	0.208400	0.996200	0.696900
C471	C47	0.282680	0.046000	0.701800
H321	H32	0.298200	0.029700	0.757200
C481	C48	0.313760	0.090790	0.655300
H331	H33	0.350200	0.103900	0.679600
C491	C49	0.211800	0.115050	0.440500
C501	C50	0.151170	0.129790	0.429900
H341	H34	0.126000	0.129300	0.482700
C511	C51	0.128140	0.145210	0.341200
H351	H35	0.087800	0.155000	0.335600
C521	C52	0.164720	0.146230	0.260800
C531	C53	0.225110	0.131710	0.271400
H361	H36	0.250300	0.132600	0.218700
C541	C54	0.248180	0.115990	0.359700
H371	H37	0.288500	0.105900	0.365000
C551	C55	0.141080	0.164790	0.164100
C561	C56	0.205930	0.368530	0.446200
H381	H38	0.222800	0.401600	0.474400
C571	C57	0.193890	0.281700	0.392100
H391	H39	0.201300	0.242800	0.375500
C581	C58	0.141540	0.310450	0.376100
H401	H40	0.107200	0.295300	0.347500
C591	C59	0.107490	0.414220	0.405600
C601	C60	0.049200	0.403960	0.375700
H411	H41	0.037200	0.366000	0.360100
C611	C61	0.008660	0.450160	0.369000
H421	H42	0.969600	0.442300	0.349700
C621	C62	0.024510	0.507550	0.390100
C631	C63	0.082980	0.516930	0.422500
H431	H43	0.094700	0.554800	0.439200
C641	C64	0.124190	0.471220	0.430500
H441	H44	0.162800	0.478700	0.452500
C651	C65	0.981560	0.557120	0.375700
C661	C66	0.926260	0.547860	0.332400
H451	H45	0.914600	0.509600	0.317800
C671	C67	0.888070	0.593860	0.310500
H461	H46	0.851200	0.586400	0.282000
C681	C68	0.904860	0.650840	0.331100
C691	C69	0.957820	0.661290	0.378200
H471	H47	0.968400	0.699500	0.394800
C701	C70	0.995440	0.614940	0.400800
H481	H48	0.030900	0.622500	0.433600
C711	C71	0.867760	0.712220	0.199500
H491	H49	0.889600	0.692300	0.153200
C721	C72	0.808210	0.772490	0.269700
H501	H50	0.780700	0.802600	0.279900
C731	C73	0.831610	0.737090	0.339000
H511	H51	0.823600	0.738700	0.403900
C741	C74	0.386180	0.380470	0.323000
H521	H52	0.398900	0.348200	0.287700
C751	C75	0.347320	0.433080	0.432200
H531	H53	0.327800	0.444100	0.487800
C761	C76	0.370500	0.470730	0.367700
H541	H54	0.369600	0.511600	0.370300
C771	C77	0.425840	0.455170	0.212200
C781	C78	0.430640	0.514060	0.189900
H551	H55	0.414500	0.542300	0.230400
C791	C79	0.459610	0.531260	0.107100
H561	H56	0.462400	0.571200	0.093100
C801	C80	0.484680	0.490800	0.044200
C811	C81	0.479350	0.431760	0.069700
H571	H57	0.495700	0.403300	0.029800
C821	C82	0.450870	0.414010	0.151200
H581	H58	0.448300	0.374200	0.165700
Co31	Co3	0.825530	0.794920	0.038460
O91	O9	0.796140	0.713510	0.986480
O101	O10	0.880760	0.659840	0.982500
O111	O11	0.678010	0.665170	0.403350
O121	O12	0.586140	0.677980	0.342140
N131	N13	0.734260	0.818030	0.063800
N141	N14	0.649400	0.866820	0.089150
N151	N15	0.369070	0.198950	0.206510
N161	N16	0.331690	0.256710	0.318120
N171	N17	0.856770	0.876340	0.096210
N181	N18	0.895780	0.936840	0.202880
C831	C83	0.825370	0.667320	0.969800
C841	C84	0.790630	0.616180	0.927600
C851	C85	0.736290	0.594910	0.965700
C861	C86	0.705960	0.550270	0.917400
H591	H59	0.669600	0.536500	0.941200
C871	C87	0.729180	0.526020	0.834300
H601	H60	0.708400	0.496200	0.803100
C881	C88	0.782680	0.546000	0.798200
H611	H61	0.798200	0.529700	0.742800
C891	C89	0.813760	0.590790	0.844700
H621	H62	0.850200	0.603900	0.820400
C901	C90	0.711800	0.615050	0.059500
C911	C91	0.651170	0.629790	0.070100
H631	H63	0.626000	0.629300	0.017300
C921	C92	0.628140	0.645210	0.158800
H641	H64	0.587800	0.655000	0.164400
C931	C93	0.664720	0.646230	0.239200
C941	C94	0.725110	0.631710	0.228600
H651	H65	0.750300	0.632600	0.281300
C951	C95	0.748180	0.615990	0.140300
H661	H66	0.788500	0.605900	0.135000
C961	C96	0.641080	0.664790	0.335900
C971	C97	0.705930	0.868530	0.053800
H671	H67	0.722800	0.901600	0.025600
C981	C98	0.693890	0.781700	0.107900
H681	H68	0.701300	0.742800	0.124500
C991	C99	0.641540	0.810450	0.123900
H691	H69	0.607200	0.795300	0.152500
C1001	C100	0.607490	0.914220	0.094400
C1011	C101	0.549200	0.903960	0.124300
H701	H70	0.537200	0.866000	0.139900
C1021	C102	0.508660	0.950160	0.131000
H711	H71	0.469600	0.942300	0.150300
C1031	C103	0.524510	0.007550	0.109900
C1041	C104	0.582980	0.016930	0.077500
H721	H72	0.594700	0.054800	0.060800
C1051	C105	0.624190	0.971220	0.069500
H731	H73	0.662800	0.978700	0.047500
C1061	C106	0.481560	0.057120	0.124300
C1071	C107	0.426260	0.047860	0.167600
H741	H74	0.414600	0.009600	0.182200
C1081	C108	0.388070	0.093860	0.189500
H751	H75	0.351200	0.086400	0.218000
C1091	C109	0.404860	0.150840	0.168900
C1101	C110	0.457820	0.161290	0.121800
H761	H76	0.468400	0.199500	0.105200
C1111	C111	0.495440	0.114940	0.099200
H771	H77	0.530900	0.122500	0.066400
C1121	C112	0.367760	0.212220	0.300500
H781	H78	0.389600	0.192300	0.346800
C1131	C113	0.308210	0.272490	0.230300
H791	H79	0.280700	0.302600	0.220100
C1141	C114	0.331610	0.237090	0.161000
H801	H80	0.323600	0.238700	0.096100
C1151	C115	0.886180	0.880470	0.177000
H811	H81	0.898900	0.848200	0.212300
C1161	C116	0.847320	0.933080	0.067800
H821	H82	0.827800	0.944100	0.012200
C1171	C117	0.870500	0.970730	0.132300
H831	H83	0.869600	0.011600	0.129700
C1181	C118	0.925840	0.955170	0.287800
C1191	C119	0.930640	0.014060	0.310100
H841	H84	0.914500	0.042300	0.269600
C1201	C120	0.959610	0.031260	0.392900
H851	H85	0.962400	0.071200	0.406900
C1211	C121	0.984680	0.990800	0.455800
C1221	C122	0.979350	0.931760	0.430300
H861	H86	0.995700	0.903300	0.470200
C1231	C123	0.950870	0.914010	0.348800
H871	H87	0.948300	0.874200	0.334300
Co41	Co4	0.674470	0.705080	0.538460
O131	O13	0.703860	0.786490	0.486480
O141	O14	0.619240	0.840160	0.482500
O151	O15	0.821990	0.834830	0.903350
O161	O16	0.913860	0.822020	0.842140
N191	N19	0.765740	0.681970	0.563800
N201	N20	0.850600	0.633180	0.589150
N211	N21	0.130930	0.301050	0.706510
N221	N22	0.168310	0.243290	0.818120
N231	N23	0.643230	0.623660	0.596210
N241	N24	0.604220	0.563160	0.702880
C1241	C124	0.674630	0.832680	0.469800
C1251	C125	0.709370	0.883820	0.427600
C1261	C126	0.763710	0.905090	0.465700
C1271	C127	0.794040	0.949730	0.417400
H881	H88	0.830400	0.963500	0.441200
C1281	C128	0.770820	0.973980	0.334300
H891	H89	0.791600	0.003800	0.303100
C1291	C129	0.717320	0.954000	0.298200
H901	H90	0.701800	0.970300	0.242800
C1301	C130	0.686240	0.909210	0.344700
H911	H91	0.649800	0.896100	0.320400
C1311	C131	0.788200	0.884950	0.559500
C1321	C132	0.848830	0.870210	0.570100
H921	H92	0.874000	0.870700	0.517300
C1331	C133	0.871860	0.854790	0.658800
H931	H93	0.912200	0.845000	0.664400
C1341	C134	0.835280	0.853770	0.739200
C1351	C135	0.774890	0.868290	0.728600
H941	H94	0.749700	0.867400	0.781300
C1361	C136	0.751820	0.884010	0.640300
H951	H95	0.711500	0.894100	0.635000
C1371	C137	0.858920	0.835210	0.835900
C1381	C138	0.794070	0.631470	0.553800
H961	H96	0.777200	0.598400	0.525600
C1391	C139	0.806110	0.718300	0.607900
H971	H97	0.798700	0.757200	0.624500
C1401	C140	0.858460	0.689550	0.623900
H981	H98	0.892800	0.704700	0.652500
C1411	C141	0.892510	0.585780	0.594400
C1421	C142	0.950800	0.596040	0.624300
H991	H99	0.962800	0.634000	0.639900
C1431	C143	0.991340	0.549840	0.631000
H1001	H100	0.030400	0.557700	0.650300
C1441	C144	0.975490	0.492450	0.609900
C1451	C145	0.917020	0.483070	0.577500
H1011	H101	0.905300	0.445200	0.560800
C1461	C146	0.875810	0.528780	0.569500
H1021	H102	0.837200	0.521300	0.547500
C1471	C147	0.018440	0.442880	0.624300
C1481	C148	0.073740	0.452140	0.667600
H1031	H103	0.085400	0.490400	0.682200
C1491	C149	0.111930	0.406140	0.689500
H1041	H104	0.148800	0.413600	0.718000
C1501	C150	0.095140	0.349160	0.668900
C1511	C151	0.042180	0.338710	0.621800
H1051	H105	0.031600	0.300500	0.605200
C1521	C152	0.004560	0.385060	0.599200
H1061	H106	0.969100	0.377500	0.566400
C1531	C153	0.132240	0.287780	0.800500
H1071	H107	0.110400	0.307700	0.846800
C1541	C154	0.191790	0.227510	0.730300
H1081	H108	0.219300	0.197400	0.720100
C1551	C155	0.168390	0.262910	0.661000
H1091	H109	0.176400	0.261300	0.596100
C1561	C156	0.613820	0.619530	0.677000
H1101	H110	0.601100	0.651800	0.712300
C1571	C157	0.652680	0.566920	0.567800
H1111	H111	0.672200	0.555900	0.512200
C1581	C158	0.629500	0.529270	0.632300
H1121	H112	0.630400	0.488400	0.629700
C1591	C159	0.574160	0.544830	0.787800
C1601	C160	0.569360	0.485940	0.810100
H1131	H113	0.585500	0.457700	0.769600
C1611	C161	0.540390	0.468740	0.892900
H1141	H114	0.537600	0.428800	0.906900
C1621	C162	0.515320	0.509200	0.955800
C1631	C163	0.520650	0.568240	0.930300
H1151	H115	0.504300	0.596700	0.970200
C1641	C164	0.549130	0.585990	0.848800
H1161	H116	0.551700	0.625800	0.834300
Co51	Co5	0.825530	0.205080	0.538460
O171	O17	0.796140	0.286490	0.486480
O181	O18	0.880760	0.340160	0.482500
O191	O19	0.678010	0.334830	0.903350
O201	O20	0.586140	0.322020	0.842140
N251	N25	0.734260	0.181970	0.563800
N261	N26	0.649400	0.133180	0.589150
N271	N27	0.369070	0.801050	0.706510
N281	N28	0.331690	0.743290	0.818120
N291	N29	0.856770	0.123660	0.596210
N301	N30	0.895780	0.063160	0.702880
C1651	C165	0.825370	0.332680	0.469800
C1661	C166	0.790630	0.383820	0.427600
C1671	C167	0.736290	0.405090	0.465700
C1681	C168	0.705960	0.449730	0.417400
H1171	H117	0.669600	0.463500	0.441200
C1691	C169	0.729180	0.473980	0.334300
H1181	H118	0.708400	0.503800	0.303100
C1701	C170	0.782680	0.454000	0.298200
H1191	H119	0.798200	0.470300	0.242800
C1711	C171	0.813760	0.409210	0.344700
H1201	H120	0.850200	0.396100	0.320400
C1721	C172	0.711800	0.384950	0.559500
C1731	C173	0.651170	0.370210	0.570100
H1211	H121	0.626000	0.370700	0.517300
C1741	C174	0.628140	0.354790	0.658800
H1221	H122	0.587800	0.345000	0.664400
C1751	C175	0.664720	0.353770	0.739200
C1761	C176	0.725110	0.368290	0.728600
H1231	H123	0.750300	0.367400	0.781300
C1771	C177	0.748180	0.384010	0.640300
H1241	H124	0.788500	0.394100	0.635000
C1781	C178	0.641080	0.335210	0.835900
C1791	C179	0.705930	0.131470	0.553800
H1251	H125	0.722800	0.098400	0.525600
C1801	C180	0.693890	0.218300	0.607900
H1261	H126	0.701300	0.257200	0.624500
C1811	C181	0.641540	0.189550	0.623900
H1271	H127	0.607200	0.204700	0.652500
C1821	C182	0.607490	0.085780	0.594400
C1831	C183	0.549200	0.096040	0.624300
H1281	H128	0.537200	0.134000	0.639900
C1841	C184	0.508660	0.049840	0.631000
H1291	H129	0.469600	0.057700	0.650300
C1851	C185	0.524510	0.992450	0.609900
C1861	C186	0.582980	0.983070	0.577500
H1301	H130	0.594700	0.945200	0.560800
C1871	C187	0.624190	0.028780	0.569500
H1311	H131	0.662800	0.021300	0.547500
C1881	C188	0.481560	0.942880	0.624300
C1891	C189	0.426260	0.952140	0.667600
H1321	H132	0.414600	0.990400	0.682200
C1901	C190	0.388070	0.906140	0.689500
H1331	H133	0.351200	0.913600	0.718000
C1911	C191	0.404860	0.849160	0.668900
C1921	C192	0.457820	0.838710	0.621800
H1341	H134	0.468400	0.800500	0.605200
C1931	C193	0.495440	0.885060	0.599200
H1351	H135	0.530900	0.877500	0.566400
C1941	C194	0.367760	0.787780	0.800500
H1361	H136	0.389600	0.807700	0.846800
C1951	C195	0.308210	0.727510	0.730300
H1371	H137	0.280700	0.697400	0.720100
C1961	C196	0.331610	0.762910	0.661000
H1381	H138	0.323600	0.761300	0.596100
C1971	C197	0.886180	0.119530	0.677000
H1391	H139	0.898900	0.151800	0.712300
C1981	C198	0.847320	0.066920	0.567800
H1401	H140	0.827800	0.055900	0.512200
C1991	C199	0.870500	0.029270	0.632300
H1411	H141	0.869600	0.988400	0.629700
C2001	C200	0.925840	0.044830	0.787800
C2011	C201	0.930640	0.985940	0.810100
H1421	H142	0.914500	0.957700	0.769600
C2021	C202	0.959610	0.968740	0.892900
H1431	H143	0.962400	0.928800	0.906900
C2031	C203	0.984680	0.009200	0.955800
C2041	C204	0.979350	0.068240	0.930300
H1441	H144	0.995700	0.096700	0.970200
C2051	C205	0.950870	0.085990	0.848800
H1451	H145	0.948300	0.125800	0.834300
Co61	Co6	0.674470	0.294920	0.038460
O211	O21	0.703860	0.213510	0.986480
O221	O22	0.619240	0.159840	0.982500
O231	O23	0.821990	0.165170	0.403350
O241	O24	0.913860	0.177980	0.342140
N311	N31	0.765740	0.318030	0.063800
N321	N32	0.850600	0.366820	0.089150
N331	N33	0.130930	0.698950	0.206510
N341	N34	0.168310	0.756710	0.318120
N351	N35	0.643230	0.376340	0.096210
N361	N36	0.604220	0.436840	0.202880
C2061	C206	0.674630	0.167320	0.969800
C2071	C207	0.709370	0.116180	0.927600
C2081	C208	0.763710	0.094910	0.965700
C2091	C209	0.794040	0.050270	0.917400
H1461	H146	0.830400	0.036500	0.941200
C2101	C210	0.770820	0.026020	0.834300
H1471	H147	0.791600	0.996200	0.803100
C2111	C211	0.717320	0.046000	0.798200
H1481	H148	0.701800	0.029700	0.742800
C2121	C212	0.686240	0.090790	0.844700
H1491	H149	0.649800	0.103900	0.820400
C2131	C213	0.788200	0.115050	0.059500
C2141	C214	0.848830	0.129790	0.070100
H1501	H150	0.874000	0.129300	0.017300
C2151	C215	0.871860	0.145210	0.158800
H1511	H151	0.912200	0.155000	0.164400
C2161	C216	0.835280	0.146230	0.239200
C2171	C217	0.774890	0.131710	0.228600
H1521	H152	0.749700	0.132600	0.281300
C2181	C218	0.751820	0.115990	0.140300
H1531	H153	0.711500	0.105900	0.135000
C2191	C219	0.858920	0.164790	0.335900
C2201	C220	0.794070	0.368530	0.053800
H1541	H154	0.777200	0.401600	0.025600
C2211	C221	0.806110	0.281700	0.107900
H1551	H155	0.798700	0.242800	0.124500
C2221	C222	0.858460	0.310450	0.123900
H1561	H156	0.892800	0.295300	0.152500
C2231	C223	0.892510	0.414220	0.094400
C2241	C224	0.950800	0.403960	0.124300
H1571	H157	0.962800	0.366000	0.139900
C2251	C225	0.991340	0.450160	0.131000
H1581	H158	0.030400	0.442300	0.150300
C2261	C226	0.975490	0.507550	0.109900
C2271	C227	0.917020	0.516930	0.077500
H1591	H159	0.905300	0.554800	0.060800
C2281	C228	0.875810	0.471220	0.069500
H1601	H160	0.837200	0.478700	0.047500
C2291	C229	0.018440	0.557120	0.124300
C2301	C230	0.073740	0.547860	0.167600
H1611	H161	0.085400	0.509600	0.182200
C2311	C231	0.111930	0.593860	0.189500
H1621	H162	0.148800	0.586400	0.218000
C2321	C232	0.095140	0.650840	0.168900
C2331	C233	0.042180	0.661290	0.121800
H1631	H163	0.031600	0.699500	0.105200
C2341	C234	0.004560	0.614940	0.099200
H1641	H164	0.969100	0.622500	0.066400
C2351	C235	0.132240	0.712220	0.300500
H1651	H165	0.110400	0.692300	0.346800
C2361	C236	0.191790	0.772490	0.230300
H1661	H166	0.219300	0.802600	0.220100
C2371	C237	0.168390	0.737090	0.161000
H1671	H167	0.176400	0.738700	0.096100
C2381	C238	0.613820	0.380470	0.177000
H1681	H168	0.601100	0.348200	0.212300
C2391	C239	0.652680	0.433080	0.067800
H1691	H169	0.672200	0.444100	0.012200
C2401	C240	0.629500	0.470730	0.132300
H1701	H170	0.630400	0.511600	0.129700
C2411	C241	0.574160	0.455170	0.287800
C2421	C242	0.569360	0.514060	0.310100
H1711	H171	0.585500	0.542300	0.269600
C2431	C243	0.540390	0.531260	0.392900
H1721	H172	0.537600	0.571200	0.406900
C2441	C244	0.515320	0.490800	0.455800
C2451	C245	0.520650	0.431760	0.430300
H1731	H173	0.504300	0.403300	0.470200
C2461	C246	0.549130	0.414010	0.348800
H1741	H174	0.551700	0.374200	0.334300
Co71	Co7	0.174470	0.794920	0.461540
O251	O25	0.203860	0.713510	0.513520
O261	O26	0.119240	0.659840	0.517500
O271	O27	0.321990	0.665170	0.096650
O281	O28	0.413860	0.677980	0.157860
N371	N37	0.265740	0.818030	0.436200
N381	N38	0.350600	0.866820	0.410850
N391	N39	0.630930	0.198950	0.293490
N401	N40	0.668310	0.256710	0.181880
N411	N41	0.143230	0.876340	0.403790
N421	N42	0.104220	0.936840	0.297120
C2471	C247	0.174630	0.667320	0.530200
C2481	C248	0.209370	0.616180	0.572400
C2491	C249	0.263710	0.594910	0.534300
C2501	C250	0.294040	0.550270	0.582600
H1751	H175	0.330400	0.536500	0.558800
C2511	C251	0.270820	0.526020	0.665700
H1761	H176	0.291600	0.496200	0.696900
C2521	C252	0.217320	0.546000	0.701800
H1771	H177	0.201800	0.529700	0.757200
C2531	C253	0.186240	0.590790	0.655300
H1781	H178	0.149800	0.603900	0.679600
C2541	C254	0.288200	0.615050	0.440500
C2551	C255	0.348830	0.629790	0.429900
H1791	H179	0.374000	0.629300	0.482700
C2561	C256	0.371860	0.645210	0.341200
H1801	H180	0.412200	0.655000	0.335600
C2571	C257	0.335280	0.646230	0.260800
C2581	C258	0.274890	0.631710	0.271400
H1811	H181	0.249700	0.632600	0.218700
C2591	C259	0.251820	0.615990	0.359700
H1821	H182	0.211500	0.605900	0.365000
C2601	C260	0.358920	0.664790	0.164100
C2611	C261	0.294070	0.868530	0.446200
H1831	H183	0.277200	0.901600	0.474400
C2621	C262	0.306110	0.781700	0.392100
H1841	H184	0.298700	0.742800	0.375500
C2631	C263	0.358460	0.810450	0.376100
H1851	H185	0.392800	0.795300	0.347500
C2641	C264	0.392510	0.914220	0.405600
C2651	C265	0.450800	0.903960	0.375700
H1861	H186	0.462800	0.866000	0.360100
C2661	C266	0.491340	0.950160	0.369000
H1871	H187	0.530400	0.942300	0.349700
C2671	C267	0.475490	0.007550	0.390100
C2681	C268	0.417020	0.016930	0.422500
H1881	H188	0.405300	0.054800	0.439200
C2691	C269	0.375810	0.971220	0.430500
H1891	H189	0.337200	0.978700	0.452500
C2701	C270	0.518440	0.057120	0.375700
C2711	C271	0.573740	0.047860	0.332400
H1901	H190	0.585400	0.009600	0.317800
C2721	C272	0.611930	0.093860	0.310500
H1911	H191	0.648800	0.086400	0.282000
C2731	C273	0.595140	0.150840	0.331100
C2741	C274	0.542180	0.161290	0.378200
H1921	H192	0.531600	0.199500	0.394800
C2751	C275	0.504560	0.114940	0.400800
H1931	H193	0.469100	0.122500	0.433600
C2761	C276	0.632240	0.212220	0.199500
H1941	H194	0.610400	0.192300	0.153200
C2771	C277	0.691790	0.272490	0.269700
H1951	H195	0.719300	0.302600	0.279900
C2781	C278	0.668390	0.237090	0.339000
H1961	H196	0.676400	0.238700	0.403900
C2791	C279	0.113820	0.880470	0.323000
H1971	H197	0.101100	0.848200	0.287700
C2801	C280	0.152680	0.933080	0.432200
H1981	H198	0.172200	0.944100	0.487800
C2811	C281	0.129500	0.970730	0.367700
H1991	H199	0.130400	0.011600	0.370300
C2821	C282	0.074160	0.955170	0.212200
C2831	C283	0.069360	0.014060	0.189900
H2001	H200	0.085500	0.042300	0.230400
C2841	C284	0.040390	0.031260	0.107100
H2011	H201	0.037600	0.071200	0.093100
C2851	C285	0.015320	0.990800	0.044200
C2861	C286	0.020650	0.931760	0.069700
H2021	H202	0.004300	0.903300	0.029800
C2871	C287	0.049130	0.914010	0.151200
H2031	H203	0.051700	0.874200	0.165700
Co81	Co8	0.325530	0.705080	0.961540
O291	O29	0.296140	0.786490	0.013520
O301	O30	0.380760	0.840160	0.017500
O311	O31	0.178010	0.834830	0.596650
O321	O32	0.086140	0.822020	0.657860
N431	N43	0.234260	0.681970	0.936200
N441	N44	0.149400	0.633180	0.910850
N451	N45	0.869070	0.301050	0.793490
N461	N46	0.831690	0.243290	0.681880
N471	N47	0.356770	0.623660	0.903790
N481	N48	0.395780	0.563160	0.797120
C2881	C288	0.325370	0.832680	0.030200
C2891	C289	0.290630	0.883820	0.072400
C2901	C290	0.236290	0.905090	0.034300
C2911	C291	0.205960	0.949730	0.082600
H2041	H204	0.169600	0.963500	0.058800
C2921	C292	0.229180	0.973980	0.165700
H2051	H205	0.208400	0.003800	0.196900
C2931	C293	0.282680	0.954000	0.201800
H2061	H206	0.298200	0.970300	0.257200
C2941	C294	0.313760	0.909210	0.155300
H2071	H207	0.350200	0.896100	0.179600
C2951	C295	0.211800	0.884950	0.940500
C2961	C296	0.151170	0.870210	0.929900
H2081	H208	0.126000	0.870700	0.982700
C2971	C297	0.128140	0.854790	0.841200
H2091	H209	0.087800	0.845000	0.835600
C2981	C298	0.164720	0.853770	0.760800
C2991	C299	0.225110	0.868290	0.771400
H2101	H210	0.250300	0.867400	0.718700
C3001	C300	0.248180	0.884010	0.859700
H2111	H211	0.288500	0.894100	0.865000
C3011	C301	0.141080	0.835210	0.664100
C3021	C302	0.205930	0.631470	0.946200
H2121	H212	0.222800	0.598400	0.974400
C3031	C303	0.193890	0.718300	0.892100
H2131	H213	0.201300	0.757200	0.875500
C3041	C304	0.141540	0.689550	0.876100
H2141	H214	0.107200	0.704700	0.847500
C3051	C305	0.107490	0.585780	0.905600
C3061	C306	0.049200	0.596040	0.875700
H2151	H215	0.037200	0.634000	0.860100
C3071	C307	0.008660	0.549840	0.869000
H2161	H216	0.969600	0.557700	0.849700
C3081	C308	0.024510	0.492450	0.890100
C3091	C309	0.082980	0.483070	0.922500
H2171	H217	0.094700	0.445200	0.939200
C3101	C310	0.124190	0.528780	0.930500
H2181	H218	0.162800	0.521300	0.952500
C3111	C311	0.981560	0.442880	0.875700
C3121	C312	0.926260	0.452140	0.832400
H2191	H219	0.914600	0.490400	0.817800
C3131	C313	0.888070	0.406140	0.810500
H2201	H220	0.851200	0.413600	0.782000
C3141	C314	0.904860	0.349160	0.831100
C3151	C315	0.957820	0.338710	0.878200
H2211	H221	0.968400	0.300500	0.894800
C3161	C316	0.995440	0.385060	0.900800
H2221	H222	0.030900	0.377500	0.933600
C3171	C317	0.867760	0.287780	0.699500
H2231	H223	0.889600	0.307700	0.653200
C3181	C318	0.808210	0.227510	0.769700
H2241	H224	0.780700	0.197400	0.779900
C3191	C319	0.831610	0.262910	0.839000
H2251	H225	0.823600	0.261300	0.903900
C3201	C320	0.386180	0.619530	0.823000
H2261	H226	0.398900	0.651800	0.787700
C3211	C321	0.347320	0.566920	0.932200
H2271	H227	0.327800	0.555900	0.987800
C3221	C322	0.370500	0.529270	0.867700
H2281	H228	0.369600	0.488400	0.870300
C3231	C323	0.425840	0.544830	0.712200
C3241	C324	0.430640	0.485940	0.689900
H2291	H229	0.414500	0.457700	0.730400
C3251	C325	0.459610	0.468740	0.607100
H2301	H230	0.462400	0.428800	0.593100
C3261	C326	0.484680	0.509200	0.544200
C3271	C327	0.479350	0.568240	0.569700
H2311	H231	0.495700	0.596700	0.529800
C3281	C328	0.450870	0.585990	0.651200
H2321	H232	0.448300	0.625800	0.665700
