data_XAJZOY_clean_PM
_symmetry_space_group_name_H-M	'P1'
_cell_length_a	13.163000
_cell_length_b	14.793000
_cell_length_c	13.215000
_cell_angle_alpha	90.000000
_cell_angle_beta	119.740000
_cell_angle_gamma	90.000000
_symmetry_Int_Tables_number 1

loop_
_symmetry_equiv_pos_as_xyz
'x,y,z'

loop_
_atom_site_label
_atom_site_type_symbol
_atom_site_fract_x
_atom_site_fract_y
_atom_site_fract_z
P11	P1	0.406700	0.170600	0.840800
P21	P2	0.928800	0.168900	0.592900
P31	P3	0.153600	0.171100	0.064600
P41	P4	0.733900	0.330800	0.738700
P51	P5	0.504800	0.327300	0.266600
P61	P6	0.262200	0.320800	0.502400
P71	P7	0.738700	0.009000	0.739100
P81	P8	0.262800	0.013200	0.502100
P91	P9	0.503900	0.015700	0.262000
Al11	Al1	0.176100	0.165400	0.601000
Al21	Al2	0.913500	0.169800	0.820700
Al31	Al3	0.397200	0.172800	0.078100
Al41	Al4	0.493600	0.309400	0.731900
Al51	Al5	0.727900	0.306000	0.502400
Al61	Al6	0.274300	0.292800	0.274600
Al71	Al7	0.497400	0.036700	0.727900
Al81	Al8	0.273800	0.044600	0.271700
Al91	Al9	0.728300	0.034100	0.498500
O11	O1	0.327900	0.166800	0.307500
H11	H1	0.408100	0.166400	0.358700
O21	O2	0.460700	0.085400	0.826600
O31	O3	0.499000	0.166000	0.682000
H21	H2	0.503000	0.165600	0.613700
O41	O4	0.278200	0.179000	0.751400
O51	O5	0.463300	0.255800	0.828400
O61	O6	0.676000	0.173000	0.519000
H31	H3	0.618300	0.172600	0.540400
O71	O7	0.413300	0.174900	0.959200
O81	O8	0.039100	0.171000	0.586000
O91	O9	0.858500	0.084800	0.530500
O101	O10	0.862400	0.254700	0.535200
O111	O11	0.960500	0.170000	0.719300
O121	O12	0.164700	0.082200	0.131800
O131	O13	0.250900	0.177200	0.031200
O141	O14	0.161000	0.249300	0.132000
O151	O15	0.036300	0.172300	0.955100
O161	O16	0.686400	0.314700	0.609500
O171	O17	0.840200	0.265400	0.808000
O181	O18	0.775900	0.423800	0.773400
O191	O19	0.638300	0.309000	0.757300
O201	O20	0.618200	0.292700	0.361100
O211	O21	0.462200	0.271000	0.151200
O221	O22	0.421300	0.327600	0.312200
O231	O23	0.514000	0.413900	0.227000
O241	O24	0.188500	0.264600	0.533100
O251	O25	0.226200	0.295300	0.381300
O261	O26	0.229500	0.418000	0.504500
O271	O27	0.394300	0.310600	0.582900
O281	O28	0.837100	0.068800	0.806700
O291	O29	0.694600	0.019900	0.609100
O301	O30	0.640700	0.034500	0.769100
O311	O31	0.777400	0.910300	0.774700
O321	O32	0.383000	0.033100	0.586000
O331	O33	0.239100	0.044000	0.381000
O341	O34	0.190200	0.068900	0.544100
O351	O35	0.232000	0.914300	0.510000
O361	O36	0.621200	0.053600	0.358500
O371	O37	0.462900	0.075500	0.156500
O381	O38	0.417500	0.019700	0.302100
O391	O39	0.522500	0.917700	0.229200
P101	P10	0.593300	0.670600	0.159200
P111	P11	0.071200	0.668900	0.407100
P121	P12	0.846400	0.671100	0.935400
P131	P13	0.266100	0.830800	0.261300
P141	P14	0.495200	0.827300	0.733400
P151	P15	0.737800	0.820800	0.497600
P161	P16	0.261300	0.509000	0.260900
P171	P17	0.737200	0.513200	0.497900
P181	P18	0.496100	0.515700	0.738000
Al101	Al10	0.823900	0.665400	0.399000
Al111	Al11	0.086500	0.669800	0.179300
Al121	Al12	0.602800	0.672800	0.921900
Al131	Al13	0.506400	0.809400	0.268100
Al141	Al14	0.272100	0.806000	0.497600
Al151	Al15	0.725700	0.792800	0.725400
Al161	Al16	0.502600	0.536700	0.272100
Al171	Al17	0.726200	0.544600	0.728300
Al181	Al18	0.271700	0.534100	0.501500
O401	O40	0.672100	0.666800	0.692500
H41	H4	0.591900	0.666400	0.641300
O411	O41	0.539300	0.585400	0.173400
O421	O42	0.501000	0.666000	0.318000
H51	H5	0.497000	0.665600	0.386300
O431	O43	0.721800	0.679000	0.248600
O441	O44	0.536700	0.755800	0.171600
O451	O45	0.324000	0.673000	0.481000
H61	H6	0.381700	0.672600	0.459600
O461	O46	0.586700	0.674900	0.040800
O471	O47	0.960900	0.671000	0.414000
O481	O48	0.141500	0.584800	0.469500
O491	O49	0.137600	0.754700	0.464800
O501	O50	0.039500	0.670000	0.280700
O511	O51	0.835300	0.582200	0.868200
O521	O52	0.749100	0.677200	0.968800
O531	O53	0.839000	0.749300	0.868000
O541	O54	0.963700	0.672300	0.044900
O551	O55	0.313600	0.814700	0.390500
O561	O56	0.159800	0.765400	0.192000
O571	O57	0.224100	0.923800	0.226600
O581	O58	0.361700	0.809000	0.242700
O591	O59	0.381800	0.792700	0.638900
O601	O60	0.537800	0.771000	0.848800
O611	O61	0.578700	0.827600	0.687800
O621	O62	0.486000	0.913900	0.773000
O631	O63	0.811500	0.764600	0.466900
O641	O64	0.773800	0.795300	0.618700
O651	O65	0.770500	0.918000	0.495500
O661	O66	0.605700	0.810600	0.417100
O671	O67	0.162900	0.568800	0.193300
O681	O68	0.305400	0.519900	0.390900
O691	O69	0.359300	0.534500	0.230900
O701	O70	0.222600	0.410300	0.225300
O711	O71	0.617000	0.533100	0.414000
O721	O72	0.760900	0.544000	0.619000
O731	O73	0.809800	0.568900	0.455900
O741	O74	0.768000	0.414300	0.490000
O751	O75	0.378800	0.553600	0.641500
O761	O76	0.537100	0.575500	0.843500
O771	O77	0.582500	0.519700	0.697900
O781	O78	0.477500	0.417700	0.770800
