data_XAKVUB_clean_PM
_symmetry_space_group_name_H-M	'P1'
_cell_length_a	10.160400
_cell_length_b	12.008500
_cell_length_c	7.189200
_cell_angle_alpha	90.000000
_cell_angle_beta	90.797000
_cell_angle_gamma	90.000000
_symmetry_Int_Tables_number 1

loop_
_symmetry_equiv_pos_as_xyz
'x,y,z'

loop_
_atom_site_label
_atom_site_type_symbol
_atom_site_fract_x
_atom_site_fract_y
_atom_site_fract_z
Ga11	Ga1	0.833940	0.131530	0.324260
P11	P1	0.117820	0.194120	0.251330
O11	O1	0.974800	0.230730	0.290100
O21	O2	0.193900	0.301700	0.209000
O31	O3	0.182900	0.136900	0.421800
O41	O4	0.876900	0.884400	0.913200
Ga21	Ga2	0.333940	0.631530	0.324260
P21	P2	0.617820	0.694120	0.251330
O51	O5	0.474800	0.730730	0.290100
O61	O6	0.693900	0.801700	0.209000
O71	O7	0.682900	0.636900	0.421800
O81	O8	0.376900	0.384400	0.913200
Ga31	Ga3	0.166060	0.131530	0.675740
P31	P3	0.882180	0.194120	0.748670
O91	O9	0.025200	0.230730	0.709900
O101	O10	0.806100	0.301700	0.791000
O111	O11	0.817100	0.136900	0.578200
O121	O12	0.123100	0.884400	0.086800
Ga41	Ga4	0.666060	0.631530	0.675740
P41	P4	0.382180	0.694120	0.748670
O131	O13	0.525200	0.730730	0.709900
O141	O14	0.306100	0.801700	0.791000
O151	O15	0.317100	0.636900	0.578200
O161	O16	0.623100	0.384400	0.086800
Ga51	Ga5	0.166060	0.868470	0.675740
P51	P5	0.882180	0.805880	0.748670
O171	O17	0.025200	0.769270	0.709900
O181	O18	0.806100	0.698300	0.791000
O191	O19	0.817100	0.863100	0.578200
O201	O20	0.123100	0.115600	0.086800
Ga61	Ga6	0.666060	0.368470	0.675740
P61	P6	0.382180	0.305880	0.748670
O211	O21	0.525200	0.269270	0.709900
O221	O22	0.306100	0.198300	0.791000
O231	O23	0.317100	0.363100	0.578200
O241	O24	0.623100	0.615600	0.086800
Ga71	Ga7	0.833940	0.868470	0.324260
P71	P7	0.117820	0.805880	0.251330
O251	O25	0.974800	0.769270	0.290100
O261	O26	0.193900	0.698300	0.209000
O271	O27	0.182900	0.863100	0.421800
O281	O28	0.876900	0.115600	0.913200
Ga81	Ga8	0.333940	0.368470	0.324260
P81	P8	0.617820	0.305880	0.251330
O291	O29	0.474800	0.269270	0.290100
O301	O30	0.693900	0.198300	0.209000
O311	O31	0.682900	0.363100	0.421800
O321	O32	0.376900	0.615600	0.913200
Ga91	Ga9	0.000000	0.000000	0.000000
Ga101	Ga10	0.500000	0.500000	0.000000
O331	O33	0.899400	0.000000	0.237200
O341	O34	0.399400	0.500000	0.237200
O351	O35	0.100600	0.000000	0.762800
O361	O36	0.600600	0.500000	0.762800
