data_XALDAS_clean_PM
_symmetry_space_group_name_H-M	'P1'
_cell_length_a	24.649300
_cell_length_b	24.002900
_cell_length_c	17.226700
_cell_angle_alpha	90.000000
_cell_angle_beta	91.311000
_cell_angle_gamma	90.000000
_symmetry_Int_Tables_number 1

loop_
_symmetry_equiv_pos_as_xyz
'x,y,z'

loop_
_atom_site_label
_atom_site_type_symbol
_atom_site_fract_x
_atom_site_fract_y
_atom_site_fract_z
Zn11	Zn1	0.353000	0.434120	0.189900
O11	O1	0.353700	0.454100	0.081200
O21	O2	0.293700	0.381300	0.199700
O31	O3	0.256200	0.432100	0.296000
O41	O4	0.918400	0.108400	0.207100
O51	O5	0.966800	0.063800	0.297400
C11	C1	0.353900	0.451100	0.843000
H11	H1	0.360100	0.417400	0.817800
C21	C2	0.349700	0.453400	0.922000
H21	H2	0.345000	0.420700	0.950000
C31	C3	0.262000	0.392000	0.252000
C41	C4	0.126800	0.315000	0.294000
H31	H3	0.097000	0.319400	0.326000
C51	C5	0.170000	0.352200	0.299000
H41	H4	0.168700	0.381900	0.333500
C61	C6	0.214200	0.345300	0.252000
C71	C7	0.215700	0.301000	0.200000
H51	H5	0.245500	0.296300	0.168400
C81	C8	0.173000	0.263500	0.195500
H61	H6	0.173800	0.233800	0.160800
C91	C9	0.128300	0.270400	0.243000
C101	C10	0.005200	0.187600	0.191200
H71	H7	0.977000	0.189900	0.154500
C111	C11	0.006800	0.143900	0.244000
C121	C12	0.048900	0.140400	0.298900
H81	H8	0.050000	0.111200	0.334300
C131	C13	0.089500	0.180600	0.300700
H91	H9	0.117700	0.178300	0.337400
C141	C14	0.088000	0.224300	0.248000
C151	C15	0.045800	0.227800	0.193000
H101	H10	0.044800	0.257000	0.157600
C161	C16	0.956000	0.102000	0.252000
Zn21	Zn2	0.853000	0.934120	0.189900
O61	O6	0.853700	0.954100	0.081200
O71	O7	0.793700	0.881300	0.199700
O81	O8	0.756200	0.932100	0.296000
O91	O9	0.418400	0.608400	0.207100
O101	O10	0.466800	0.563800	0.297400
C171	C17	0.853900	0.951100	0.843000
H111	H11	0.860100	0.917400	0.817800
C181	C18	0.849700	0.953400	0.922000
H121	H12	0.845000	0.920700	0.950000
C191	C19	0.762000	0.892000	0.252000
C201	C20	0.626800	0.815000	0.294000
H131	H13	0.597000	0.819400	0.326000
C211	C21	0.670000	0.852200	0.299000
H141	H14	0.668700	0.881900	0.333500
C221	C22	0.714200	0.845300	0.252000
C231	C23	0.715700	0.801000	0.200000
H151	H15	0.745500	0.796300	0.168400
C241	C24	0.673000	0.763500	0.195500
H161	H16	0.673800	0.733800	0.160800
C251	C25	0.628300	0.770400	0.243000
C261	C26	0.505200	0.687600	0.191200
H171	H17	0.477000	0.689900	0.154500
C271	C27	0.506800	0.643900	0.244000
C281	C28	0.548900	0.640400	0.298900
H181	H18	0.550000	0.611200	0.334300
C291	C29	0.589500	0.680600	0.300700
H191	H19	0.617700	0.678300	0.337400
C301	C30	0.588000	0.724300	0.248000
C311	C31	0.545800	0.727800	0.193000
H201	H20	0.544800	0.757000	0.157600
C321	C32	0.456000	0.602000	0.252000
Zn31	Zn3	0.353000	0.565880	0.189900
O111	O11	0.353700	0.545900	0.081200
O121	O12	0.293700	0.618700	0.199700
O131	O13	0.256200	0.567900	0.296000
O141	O14	0.918400	0.891600	0.207100
O151	O15	0.966800	0.936200	0.297400
C331	C33	0.353900	0.548900	0.843000
H211	H21	0.360100	0.582600	0.817800
C341	C34	0.349700	0.546600	0.922000
H221	H22	0.345000	0.579300	0.950000
C351	C35	0.262000	0.608000	0.252000
C361	C36	0.126800	0.685000	0.294000
H231	H23	0.097000	0.680600	0.326000
C371	C37	0.170000	0.647800	0.299000
H241	H24	0.168700	0.618100	0.333500
C381	C38	0.214200	0.654700	0.252000
C391	C39	0.215700	0.699000	0.200000
H251	H25	0.245500	0.703700	0.168400
C401	C40	0.173000	0.736500	0.195500
H261	H26	0.173800	0.766200	0.160800
C411	C41	0.128300	0.729600	0.243000
C421	C42	0.005200	0.812400	0.191200
H271	H27	0.977000	0.810100	0.154500
C431	C43	0.006800	0.856100	0.244000
C441	C44	0.048900	0.859600	0.298900
H281	H28	0.050000	0.888800	0.334300
C451	C45	0.089500	0.819400	0.300700
H291	H29	0.117700	0.821700	0.337400
C461	C46	0.088000	0.775700	0.248000
C471	C47	0.045800	0.772200	0.193000
H301	H30	0.044800	0.743000	0.157600
C481	C48	0.956000	0.898000	0.252000
Zn41	Zn4	0.853000	0.065880	0.189900
O161	O16	0.853700	0.045900	0.081200
O171	O17	0.793700	0.118700	0.199700
O181	O18	0.756200	0.067900	0.296000
O191	O19	0.418400	0.391600	0.207100
O201	O20	0.466800	0.436200	0.297400
C491	C49	0.853900	0.048900	0.843000
H311	H31	0.860100	0.082600	0.817800
C501	C50	0.849700	0.046600	0.922000
H321	H32	0.845000	0.079300	0.950000
C511	C51	0.762000	0.108000	0.252000
C521	C52	0.626800	0.185000	0.294000
H331	H33	0.597000	0.180600	0.326000
C531	C53	0.670000	0.147800	0.299000
H341	H34	0.668700	0.118100	0.333500
C541	C54	0.714200	0.154700	0.252000
C551	C55	0.715700	0.199000	0.200000
H351	H35	0.745500	0.203700	0.168400
C561	C56	0.673000	0.236500	0.195500
H361	H36	0.673800	0.266200	0.160800
C571	C57	0.628300	0.229600	0.243000
C581	C58	0.505200	0.312400	0.191200
H371	H37	0.477000	0.310100	0.154500
C591	C59	0.506800	0.356100	0.244000
C601	C60	0.548900	0.359600	0.298900
H381	H38	0.550000	0.388800	0.334300
C611	C61	0.589500	0.319400	0.300700
H391	H39	0.617700	0.321700	0.337400
C621	C62	0.588000	0.275700	0.248000
C631	C63	0.545800	0.272200	0.193000
H401	H40	0.544800	0.243000	0.157600
C641	C64	0.456000	0.398000	0.252000
Zn51	Zn5	0.417700	0.500000	0.319800
Zn61	Zn6	0.286900	0.500000	0.319600
O211	O21	0.353500	0.500000	0.254300
O221	O22	0.410200	0.500000	0.432700
O231	O23	0.319000	0.500000	0.423000
C651	C65	0.363600	0.500000	0.458000
C661	C66	0.314000	0.500000	0.583000
H411	H41	0.282500	0.500000	0.551300
C671	C67	0.310000	0.500000	0.664000
H421	H42	0.276600	0.500000	0.687000
C681	C68	0.358000	0.500000	0.709000
C691	C69	0.408000	0.500000	0.674000
H431	H43	0.439500	0.500000	0.705800
C701	C70	0.413000	0.500000	0.594000
H441	H44	0.446800	0.500000	0.570800
C711	C71	0.365000	0.500000	0.551000
C721	C72	0.349000	0.500000	0.801000
C731	C73	0.352000	0.500000	0.957000
C741	C74	0.350000	0.500000	0.044000
Zn71	Zn7	0.917700	0.000000	0.319800
Zn81	Zn8	0.786900	0.000000	0.319600
O241	O24	0.853500	0.000000	0.254300
O251	O25	0.910200	0.000000	0.432700
O261	O26	0.819000	0.000000	0.423000
C751	C75	0.863600	0.000000	0.458000
C761	C76	0.814000	0.000000	0.583000
H451	H45	0.782500	0.000000	0.551300
C771	C77	0.810000	0.000000	0.664000
H461	H46	0.776600	0.000000	0.687000
C781	C78	0.858000	0.000000	0.709000
C791	C79	0.908000	0.000000	0.674000
H471	H47	0.939500	0.000000	0.705800
C801	C80	0.913000	0.000000	0.594000
H481	H48	0.946800	0.000000	0.570800
C811	C81	0.865000	0.000000	0.551000
C821	C82	0.849000	0.000000	0.801000
C831	C83	0.852000	0.000000	0.957000
C841	C84	0.850000	0.000000	0.044000
Zn91	Zn9	0.647000	0.434120	0.810100
O271	O27	0.646300	0.454100	0.918800
O281	O28	0.706300	0.381300	0.800300
O291	O29	0.743800	0.432100	0.704000
O301	O30	0.081600	0.108400	0.792900
O311	O31	0.033200	0.063800	0.702600
C851	C85	0.646100	0.451100	0.157000
H491	H49	0.639900	0.417400	0.182200
C861	C86	0.650300	0.453400	0.078000
H501	H50	0.655000	0.420700	0.050000
C871	C87	0.738000	0.392000	0.748000
C881	C88	0.873200	0.315000	0.706000
H511	H51	0.903000	0.319400	0.674000
C891	C89	0.830000	0.352200	0.701000
H521	H52	0.831300	0.381900	0.666500
C901	C90	0.785800	0.345300	0.748000
C911	C91	0.784300	0.301000	0.800000
H531	H53	0.754500	0.296300	0.831600
C921	C92	0.827000	0.263500	0.804500
H541	H54	0.826200	0.233800	0.839200
C931	C93	0.871700	0.270400	0.757000
C941	C94	0.994800	0.187600	0.808800
H551	H55	0.023000	0.189900	0.845500
C951	C95	0.993200	0.143900	0.756000
C961	C96	0.951100	0.140400	0.701100
H561	H56	0.950000	0.111200	0.665700
C971	C97	0.910500	0.180600	0.699300
H571	H57	0.882300	0.178300	0.662600
C981	C98	0.912000	0.224300	0.752000
C991	C99	0.954200	0.227800	0.807000
H581	H58	0.955200	0.257000	0.842400
C1001	C100	0.044000	0.102000	0.748000
Zn101	Zn10	0.147000	0.934120	0.810100
O321	O32	0.146300	0.954100	0.918800
O331	O33	0.206300	0.881300	0.800300
O341	O34	0.243800	0.932100	0.704000
O351	O35	0.581600	0.608400	0.792900
O361	O36	0.533200	0.563800	0.702600
C1011	C101	0.146100	0.951100	0.157000
H591	H59	0.139900	0.917400	0.182200
C1021	C102	0.150300	0.953400	0.078000
H601	H60	0.155000	0.920700	0.050000
C1031	C103	0.238000	0.892000	0.748000
C1041	C104	0.373200	0.815000	0.706000
H611	H61	0.403000	0.819400	0.674000
C1051	C105	0.330000	0.852200	0.701000
H621	H62	0.331300	0.881900	0.666500
C1061	C106	0.285800	0.845300	0.748000
C1071	C107	0.284300	0.801000	0.800000
H631	H63	0.254500	0.796300	0.831600
C1081	C108	0.327000	0.763500	0.804500
H641	H64	0.326200	0.733800	0.839200
C1091	C109	0.371700	0.770400	0.757000
C1101	C110	0.494800	0.687600	0.808800
H651	H65	0.523000	0.689900	0.845500
C1111	C111	0.493200	0.643900	0.756000
C1121	C112	0.451100	0.640400	0.701100
H661	H66	0.450000	0.611200	0.665700
C1131	C113	0.410500	0.680600	0.699300
H671	H67	0.382300	0.678300	0.662600
C1141	C114	0.412000	0.724300	0.752000
C1151	C115	0.454200	0.727800	0.807000
H681	H68	0.455200	0.757000	0.842400
C1161	C116	0.544000	0.602000	0.748000
Zn111	Zn11	0.647000	0.565880	0.810100
O371	O37	0.646300	0.545900	0.918800
O381	O38	0.706300	0.618700	0.800300
O391	O39	0.743800	0.567900	0.704000
O401	O40	0.081600	0.891600	0.792900
O411	O41	0.033200	0.936200	0.702600
C1171	C117	0.646100	0.548900	0.157000
H691	H69	0.639900	0.582600	0.182200
C1181	C118	0.650300	0.546600	0.078000
H701	H70	0.655000	0.579300	0.050000
C1191	C119	0.738000	0.608000	0.748000
C1201	C120	0.873200	0.685000	0.706000
H711	H71	0.903000	0.680600	0.674000
C1211	C121	0.830000	0.647800	0.701000
H721	H72	0.831300	0.618100	0.666500
C1221	C122	0.785800	0.654700	0.748000
C1231	C123	0.784300	0.699000	0.800000
H731	H73	0.754500	0.703700	0.831600
C1241	C124	0.827000	0.736500	0.804500
H741	H74	0.826200	0.766200	0.839200
C1251	C125	0.871700	0.729600	0.757000
C1261	C126	0.994800	0.812400	0.808800
H751	H75	0.023000	0.810100	0.845500
C1271	C127	0.993200	0.856100	0.756000
C1281	C128	0.951100	0.859600	0.701100
H761	H76	0.950000	0.888800	0.665700
C1291	C129	0.910500	0.819400	0.699300
H771	H77	0.882300	0.821700	0.662600
C1301	C130	0.912000	0.775700	0.752000
C1311	C131	0.954200	0.772200	0.807000
H781	H78	0.955200	0.743000	0.842400
C1321	C132	0.044000	0.898000	0.748000
Zn121	Zn12	0.147000	0.065880	0.810100
O421	O42	0.146300	0.045900	0.918800
O431	O43	0.206300	0.118700	0.800300
O441	O44	0.243800	0.067900	0.704000
O451	O45	0.581600	0.391600	0.792900
O461	O46	0.533200	0.436200	0.702600
C1331	C133	0.146100	0.048900	0.157000
H791	H79	0.139900	0.082600	0.182200
C1341	C134	0.150300	0.046600	0.078000
H801	H80	0.155000	0.079300	0.050000
C1351	C135	0.238000	0.108000	0.748000
C1361	C136	0.373200	0.185000	0.706000
H811	H81	0.403000	0.180600	0.674000
C1371	C137	0.330000	0.147800	0.701000
H821	H82	0.331300	0.118100	0.666500
C1381	C138	0.285800	0.154700	0.748000
C1391	C139	0.284300	0.199000	0.800000
H831	H83	0.254500	0.203700	0.831600
C1401	C140	0.327000	0.236500	0.804500
H841	H84	0.326200	0.266200	0.839200
C1411	C141	0.371700	0.229600	0.757000
C1421	C142	0.494800	0.312400	0.808800
H851	H85	0.523000	0.310100	0.845500
C1431	C143	0.493200	0.356100	0.756000
C1441	C144	0.451100	0.359600	0.701100
H861	H86	0.450000	0.388800	0.665700
C1451	C145	0.410500	0.319400	0.699300
H871	H87	0.382300	0.321700	0.662600
C1461	C146	0.412000	0.275700	0.752000
C1471	C147	0.454200	0.272200	0.807000
H881	H88	0.455200	0.243000	0.842400
C1481	C148	0.544000	0.398000	0.748000
Zn131	Zn13	0.582300	0.500000	0.680200
Zn141	Zn14	0.713100	0.500000	0.680400
O471	O47	0.646500	0.500000	0.745700
O481	O48	0.589800	0.500000	0.567300
O491	O49	0.681000	0.500000	0.577000
C1491	C149	0.636400	0.500000	0.542000
C1501	C150	0.686000	0.500000	0.417000
H891	H89	0.717500	0.500000	0.448700
C1511	C151	0.690000	0.500000	0.336000
H901	H90	0.723400	0.500000	0.313000
C1521	C152	0.642000	0.500000	0.291000
C1531	C153	0.592000	0.500000	0.326000
H911	H91	0.560500	0.500000	0.294200
C1541	C154	0.587000	0.500000	0.406000
H921	H92	0.553200	0.500000	0.429200
C1551	C155	0.635000	0.500000	0.449000
C1561	C156	0.651000	0.500000	0.199000
C1571	C157	0.648000	0.500000	0.043000
C1581	C158	0.650000	0.500000	0.956000
Zn151	Zn15	0.082300	0.000000	0.680200
Zn161	Zn16	0.213100	0.000000	0.680400
O501	O50	0.146500	0.000000	0.745700
O511	O51	0.089800	0.000000	0.567300
O521	O52	0.181000	0.000000	0.577000
C1591	C159	0.136400	0.000000	0.542000
C1601	C160	0.186000	0.000000	0.417000
H931	H93	0.217500	0.000000	0.448700
C1611	C161	0.190000	0.000000	0.336000
H941	H94	0.223400	0.000000	0.313000
C1621	C162	0.142000	0.000000	0.291000
C1631	C163	0.092000	0.000000	0.326000
H951	H95	0.060500	0.000000	0.294200
C1641	C164	0.087000	0.000000	0.406000
H961	H96	0.053200	0.000000	0.429200
C1651	C165	0.135000	0.000000	0.449000
C1661	C166	0.151000	0.000000	0.199000
C1671	C167	0.148000	0.000000	0.043000
C1681	C168	0.150000	0.000000	0.956000
