data_XALVOY_clean_PM
_symmetry_space_group_name_H-M	'P1'
_cell_length_a	9.636000
_cell_length_b	9.885000
_cell_length_c	24.555000
_cell_angle_alpha	90.000000
_cell_angle_beta	111.479000
_cell_angle_gamma	90.000000
_symmetry_Int_Tables_number 1

loop_
_symmetry_equiv_pos_as_xyz
'x,y,z'

loop_
_atom_site_label
_atom_site_type_symbol
_atom_site_fract_x
_atom_site_fract_y
_atom_site_fract_z
Cu11	Cu1	0.202610	0.457910	0.758540
C11	C1	0.401200	0.586300	0.871910
H11	H1	0.442900	0.503300	0.887100
C21	C2	0.267000	0.731400	0.814590
H21	H2	0.197400	0.774800	0.782600
C31	C3	0.365700	0.937200	0.875500
H31	H3	0.267100	0.977500	0.860300
H41	H4	0.425000	0.978700	0.855600
C41	C4	0.435500	0.966200	0.939370
C51	C5	0.570000	0.033100	0.962950
C61	C6	0.632000	0.065900	0.021120
C71	C7	0.263400	0.310600	0.664360
H51	H5	0.318600	0.383800	0.659700
C81	C8	0.131800	0.187600	0.696560
H61	H6	0.077600	0.153200	0.718000
C91	C9	0.108000	0.990300	0.628210
H71	H7	0.029000	0.957000	0.640200
H81	H8	0.191500	0.928100	0.642800
C101	C10	0.053100	0.995600	0.561860
C111	C11	0.914200	0.044700	0.529330
C121	C12	0.138700	0.950900	0.531020
C131	C13	0.037300	0.601700	0.675090
C141	C14	0.955700	0.661300	0.615860
C151	C15	0.820900	0.729900	0.603180
C161	C16	0.737100	0.763000	0.545500
H91	H9	0.645800	0.806400	0.536700
C171	C17	0.787900	0.732000	0.500790
H101	H10	0.730700	0.753900	0.462200
C181	C18	0.923900	0.668700	0.513980
H111	H11	0.959700	0.650300	0.484400
C191	C19	0.006700	0.632600	0.570700
H121	H12	0.097600	0.588700	0.579100
C201	C20	0.765400	0.779900	0.649420
F11	F1	0.645000	0.065700	0.927810
F21	F2	0.766100	0.128500	0.041400
F31	F3	0.824300	0.088100	0.556980
F41	F4	0.276300	0.902600	0.559870
N11	N1	0.294100	0.600200	0.818250
N21	N2	0.440900	0.699800	0.900420
N31	N3	0.353100	0.792100	0.862960
N41	N4	0.197500	0.306900	0.704840
N51	N5	0.241000	0.200800	0.632740
N61	N6	0.154600	0.124400	0.653190
O11	O1	0.965400	0.559000	0.704480
O21	O2	0.179100	0.587200	0.692340
O31	O3	0.861400	0.850300	0.689460
O41	O4	0.635800	0.761100	0.644290
Cu21	Cu2	0.797390	0.957910	0.741460
C211	C21	0.598800	0.086300	0.628090
H131	H13	0.557100	0.003300	0.612900
C221	C22	0.733000	0.231400	0.685410
H141	H14	0.802600	0.274800	0.717400
C231	C23	0.634300	0.437200	0.624500
H151	H15	0.732900	0.477500	0.639700
H161	H16	0.575000	0.478700	0.644400
C241	C24	0.564500	0.466200	0.560630
C251	C25	0.430000	0.533100	0.537050
C261	C26	0.368000	0.565900	0.478880
C271	C27	0.736600	0.810600	0.835640
H171	H17	0.681400	0.883800	0.840300
C281	C28	0.868200	0.687600	0.803440
H181	H18	0.922400	0.653200	0.782000
C291	C29	0.892000	0.490300	0.871790
H191	H19	0.971000	0.457000	0.859800
H201	H20	0.808500	0.428100	0.857200
C301	C30	0.946900	0.495600	0.938140
C311	C31	0.085800	0.544700	0.970670
C321	C32	0.861300	0.450900	0.968980
C331	C33	0.962700	0.101700	0.824910
C341	C34	0.044300	0.161300	0.884140
C351	C35	0.179100	0.229900	0.896820
C361	C36	0.262900	0.263000	0.954500
H211	H21	0.354200	0.306400	0.963300
C371	C37	0.212100	0.232000	0.999210
H221	H22	0.269300	0.253900	0.037800
C381	C38	0.076100	0.168700	0.986020
H231	H23	0.040300	0.150300	0.015600
C391	C39	0.993300	0.132600	0.929300
H241	H24	0.902400	0.088700	0.920900
C401	C40	0.234600	0.279900	0.850580
F51	F5	0.355000	0.565700	0.572190
F61	F6	0.233900	0.628500	0.458600
F71	F7	0.175700	0.588100	0.943020
F81	F8	0.723700	0.402600	0.940130
N71	N7	0.705900	0.100200	0.681750
N81	N8	0.559100	0.199800	0.599580
N91	N9	0.646900	0.292100	0.637040
N101	N10	0.802500	0.806900	0.795160
N111	N11	0.759000	0.700800	0.867260
N121	N12	0.845400	0.624400	0.846810
O51	O5	0.034600	0.059000	0.795520
O61	O6	0.820900	0.087200	0.807660
O71	O7	0.138600	0.350300	0.810540
O81	O8	0.364200	0.261100	0.855710
Cu31	Cu3	0.797390	0.542090	0.241460
C411	C41	0.598800	0.413700	0.128090
H251	H25	0.557100	0.496700	0.112900
C421	C42	0.733000	0.268600	0.185410
H261	H26	0.802600	0.225200	0.217400
C431	C43	0.634300	0.062800	0.124500
H271	H27	0.732900	0.022500	0.139700
H281	H28	0.575000	0.021300	0.144400
C441	C44	0.564500	0.033800	0.060630
C451	C45	0.430000	0.966900	0.037050
C461	C46	0.368000	0.934100	0.978880
C471	C47	0.736600	0.689400	0.335640
H291	H29	0.681400	0.616200	0.340300
C481	C48	0.868200	0.812400	0.303440
H301	H30	0.922400	0.846800	0.282000
C491	C49	0.892000	0.009700	0.371790
H311	H31	0.971000	0.043000	0.359800
H321	H32	0.808500	0.071900	0.357200
C501	C50	0.946900	0.004400	0.438140
C511	C51	0.085800	0.955300	0.470670
C521	C52	0.861300	0.049100	0.468980
C531	C53	0.962700	0.398300	0.324910
C541	C54	0.044300	0.338700	0.384140
C551	C55	0.179100	0.270100	0.396820
C561	C56	0.262900	0.237000	0.454500
H331	H33	0.354200	0.193600	0.463300
C571	C57	0.212100	0.268000	0.499210
H341	H34	0.269300	0.246100	0.537800
C581	C58	0.076100	0.331300	0.486020
H351	H35	0.040300	0.349700	0.515600
C591	C59	0.993300	0.367400	0.429300
H361	H36	0.902400	0.411300	0.420900
C601	C60	0.234600	0.220100	0.350580
F91	F9	0.355000	0.934300	0.072190
F101	F10	0.233900	0.871500	0.958600
F111	F11	0.175700	0.911900	0.443020
F121	F12	0.723700	0.097400	0.440130
N131	N13	0.705900	0.399800	0.181750
N141	N14	0.559100	0.300200	0.099580
N151	N15	0.646900	0.207900	0.137040
N161	N16	0.802500	0.693100	0.295160
N171	N17	0.759000	0.799200	0.367260
N181	N18	0.845400	0.875600	0.346810
O91	O9	0.034600	0.441000	0.295520
O101	O10	0.820900	0.412800	0.307660
O111	O11	0.138600	0.149700	0.310540
O121	O12	0.364200	0.238900	0.355710
Cu41	Cu4	0.202610	0.042090	0.258540
C611	C61	0.401200	0.913700	0.371910
H371	H37	0.442900	0.996700	0.387100
C621	C62	0.267000	0.768600	0.314590
H381	H38	0.197400	0.725200	0.282600
C631	C63	0.365700	0.562800	0.375500
H391	H39	0.267100	0.522500	0.360300
H401	H40	0.425000	0.521300	0.355600
C641	C64	0.435500	0.533800	0.439370
C651	C65	0.570000	0.466900	0.462950
C661	C66	0.632000	0.434100	0.521120
C671	C67	0.263400	0.189400	0.164360
H411	H41	0.318600	0.116200	0.159700
C681	C68	0.131800	0.312400	0.196560
H421	H42	0.077600	0.346800	0.218000
C691	C69	0.108000	0.509700	0.128210
H431	H43	0.029000	0.543000	0.140200
H441	H44	0.191500	0.571900	0.142800
C701	C70	0.053100	0.504400	0.061860
C711	C71	0.914200	0.455300	0.029330
C721	C72	0.138700	0.549100	0.031020
C731	C73	0.037300	0.898300	0.175090
C741	C74	0.955700	0.838700	0.115860
C751	C75	0.820900	0.770100	0.103180
C761	C76	0.737100	0.737000	0.045500
H451	H45	0.645800	0.693600	0.036700
C771	C77	0.787900	0.768000	0.000790
H461	H46	0.730700	0.746100	0.962200
C781	C78	0.923900	0.831300	0.013980
H471	H47	0.959700	0.849700	0.984400
C791	C79	0.006700	0.867400	0.070700
H481	H48	0.097600	0.911300	0.079100
C801	C80	0.765400	0.720100	0.149420
F131	F13	0.645000	0.434300	0.427810
F141	F14	0.766100	0.371500	0.541400
F151	F15	0.824300	0.411900	0.056980
F161	F16	0.276300	0.597400	0.059870
N191	N19	0.294100	0.899800	0.318250
N201	N20	0.440900	0.800200	0.400420
N211	N21	0.353100	0.707900	0.362960
N221	N22	0.197500	0.193100	0.204840
N231	N23	0.241000	0.299200	0.132740
N241	N24	0.154600	0.375600	0.153190
O131	O13	0.965400	0.941000	0.204480
O141	O14	0.179100	0.912800	0.192340
O151	O15	0.861400	0.649700	0.189460
O161	O16	0.635800	0.738900	0.144290
