data_XALXUF01_clean_PM
_symmetry_space_group_name_H-M	'P1'
_cell_length_a	26.777800
_cell_length_b	26.777800
_cell_length_c	26.777800
_cell_angle_alpha	60.203100
_cell_angle_beta	89.647900
_cell_angle_gamma	119.797000
_symmetry_Int_Tables_number 1

loop_
_symmetry_equiv_pos_as_xyz
'x,y,z'

loop_
_atom_site_label
_atom_site_type_symbol
_atom_site_fract_x
_atom_site_fract_y
_atom_site_fract_z
Cu11	Cu1	0.768410	0.295300	0.181550
Cu21	Cu2	0.858740	0.390500	0.076040
Cu31	Cu3	0.523150	0.704700	0.526890
Cu41	Cu4	0.533460	0.609500	0.531760
Cu51	Cu5	0.473110	0.949960	0.231590
Cu61	Cu6	0.468240	0.934780	0.141260
Cu71	Cu7	0.818450	0.050040	0.476850
Cu81	Cu8	0.923960	0.065220	0.466540
Cu91	Cu9	0.231590	0.704700	0.818450
Cu101	Cu10	0.141260	0.609500	0.923960
Cu111	Cu11	0.476850	0.295300	0.473110
Cu121	Cu12	0.466540	0.390500	0.468240
Cu131	Cu13	0.526890	0.050040	0.768410
Cu141	Cu14	0.531760	0.065220	0.858740
Cu151	Cu15	0.181550	0.949960	0.523150
Cu161	Cu16	0.076040	0.934780	0.533460
Cu171	Cu17	0.794720	0.342180	0.452540
Cu181	Cu18	0.891660	0.453730	0.437930
Cu191	Cu19	0.205280	0.657820	0.547460
Cu201	Cu20	0.108340	0.546270	0.562070
Cu211	Cu21	0.452540	0.247260	0.205280
Cu221	Cu22	0.437930	0.329590	0.108340
Cu231	Cu23	0.547460	0.752740	0.794720
Cu241	Cu24	0.562070	0.670410	0.891660
H11	H1	0.059700	0.635000	0.097500
H21	H2	0.288100	0.808700	0.074200
H31	H3	0.114800	0.627200	0.292200
H41	H4	0.992300	0.563000	0.249100
H51	H5	0.835100	0.401500	0.270200
H61	H6	0.976000	0.537000	0.113400
H71	H7	0.206400	0.718900	0.012100
H81	H8	0.340900	0.860500	0.849600
H91	H9	0.354800	0.895600	0.978800
H101	H10	0.269500	0.769900	0.209800
H111	H11	0.300600	0.769100	0.357700
H121	H12	0.135600	0.624800	0.372800
H131	H13	0.267500	0.365000	0.575300
H141	H14	0.117100	0.191300	0.520600
H151	H15	0.080600	0.372800	0.512400
H161	H16	0.187900	0.437000	0.570700
H171	H17	0.328300	0.598500	0.566400
H181	H18	0.349600	0.463000	0.561000
H191	H19	0.269000	0.281100	0.512500
H201	H20	0.289900	0.139500	0.519600
H211	H21	0.125600	0.104400	0.540800
H221	H22	0.020300	0.230100	0.500400
H231	H23	0.873200	0.230900	0.468500
H241	H24	0.002400	0.375200	0.489200
H251	H25	0.424700	0.157200	0.940300
H261	H26	0.479400	0.362300	0.711900
H271	H27	0.487600	0.407000	0.885200
H281	H28	0.429300	0.241400	0.007700
H291	H29	0.433600	0.105300	0.164900
H301	H30	0.439000	0.089400	0.024000
H311	H31	0.487500	0.218500	0.793600
H321	H32	0.480400	0.190500	0.659100
H331	H33	0.459200	0.333600	0.645200
H341	H34	0.499600	0.479300	0.730500
H351	H35	0.531500	0.658300	0.699400
H361	H36	0.510800	0.508400	0.864400
H371	H37	0.902500	0.842800	0.732500
H381	H38	0.925800	0.637700	0.882900
H391	H39	0.707800	0.593000	0.919400
H401	H40	0.750900	0.758600	0.812100
H411	H41	0.729800	0.894700	0.671700
H421	H42	0.886600	0.910600	0.650400
H431	H43	0.987900	0.781500	0.731000
H441	H44	0.150400	0.809500	0.710100
H451	H45	0.021200	0.666400	0.874400
H461	H46	0.790200	0.520700	0.979700
H471	H47	0.642300	0.341700	0.126800
H481	H48	0.627200	0.491600	0.997600
H491	H49	0.940300	0.365000	0.902500
H501	H50	0.711900	0.191300	0.925800
H511	H51	0.885200	0.372800	0.707800
H521	H52	0.007700	0.437000	0.750900
H531	H53	0.164900	0.598500	0.729800
H541	H54	0.024000	0.463000	0.886600
H551	H55	0.793600	0.281100	0.987900
H561	H56	0.659100	0.139500	0.150400
H571	H57	0.645200	0.104400	0.021200
H581	H58	0.730500	0.230100	0.790200
H591	H59	0.699400	0.230900	0.642300
H601	H60	0.864400	0.375200	0.627200
H611	H61	0.732500	0.635000	0.424700
H621	H62	0.882900	0.808700	0.479400
H631	H63	0.919400	0.627200	0.487600
H641	H64	0.812100	0.563000	0.429300
H651	H65	0.671700	0.401500	0.433600
H661	H66	0.650400	0.537000	0.439000
H671	H67	0.731000	0.718900	0.487500
H681	H68	0.710100	0.860500	0.480400
H691	H69	0.874400	0.895600	0.459200
H701	H70	0.979700	0.769900	0.499600
H711	H71	0.126800	0.769100	0.531500
H721	H72	0.997600	0.624800	0.510800
H731	H73	0.575300	0.842800	0.059700
H741	H74	0.520600	0.637700	0.288100
H751	H75	0.512400	0.593000	0.114800
H761	H76	0.570700	0.758600	0.992300
H771	H77	0.566400	0.894700	0.835100
H781	H78	0.561000	0.910600	0.976000
H791	H79	0.512500	0.781500	0.206400
H801	H80	0.519600	0.809500	0.340900
H811	H81	0.540800	0.666400	0.354800
H821	H82	0.500400	0.520700	0.269500
H831	H83	0.468500	0.341700	0.300600
H841	H84	0.489200	0.491600	0.135600
H851	H85	0.097500	0.157200	0.267500
H861	H86	0.074200	0.362300	0.117100
H871	H87	0.292200	0.407000	0.080600
H881	H88	0.249100	0.241400	0.187900
H891	H89	0.270200	0.105300	0.328300
H901	H90	0.113400	0.089400	0.349600
H911	H91	0.012100	0.218500	0.269000
H921	H92	0.849600	0.190500	0.289900
H931	H93	0.978800	0.333600	0.125600
H941	H94	0.209800	0.479300	0.020300
H951	H95	0.357700	0.658300	0.873200
H961	H96	0.372800	0.508400	0.002400
C11	C1	0.104600	0.653600	0.147000
C21	C2	0.204260	0.736200	0.108940
C31	C3	0.153340	0.676500	0.207960
C41	C4	0.994710	0.558920	0.175610
C51	C5	0.969440	0.537710	0.233870
C61	C6	0.910060	0.478720	0.269080
C71	C7	0.875060	0.441010	0.246430
C81	C8	0.900310	0.462900	0.188250
C91	C9	0.959590	0.522010	0.152820
C101	C10	0.883610	0.452260	0.333790
C111	C11	0.865760	0.421140	0.164500
C121	C12	0.277010	0.803400	0.005390
C131	C13	0.244290	0.761190	0.986100
C141	C14	0.268730	0.782580	0.927010
C151	C15	0.324780	0.845850	0.888930
C161	C16	0.357200	0.887520	0.908240
C171	C17	0.333150	0.866820	0.966070
C181	C18	0.235670	0.735300	0.907170
C191	C19	0.419770	0.953760	0.869210
C201	C20	0.195720	0.692740	0.286820
C211	C21	0.255590	0.750590	0.251200
C221	C22	0.294760	0.779650	0.277250
C231	C23	0.274530	0.749830	0.340060
C241	C24	0.214710	0.690920	0.375290
C251	C25	0.175800	0.663470	0.348870
C261	C26	0.359430	0.840190	0.241240
C271	C27	0.194000	0.658700	0.441760
C281	C28	0.199400	0.346400	0.549000
C291	C29	0.154860	0.263800	0.531940
C301	C30	0.115540	0.323500	0.523160
C311	C31	0.265470	0.441080	0.564210
C321	C32	0.228420	0.462290	0.568270
C331	C33	0.252200	0.521280	0.568660
C341	C34	0.312560	0.558990	0.565950
C351	C35	0.348850	0.537100	0.562590
C361	C36	0.325170	0.477990	0.562420
C371	C37	0.213950	0.547740	0.568650
C381	C38	0.414360	0.578860	0.555380
C391	C39	0.191210	0.196600	0.526390
C401	C40	0.252710	0.238810	0.516900
C411	C41	0.290410	0.217420	0.513850
C421	C42	0.265220	0.154150	0.521070
C431	C43	0.204240	0.112480	0.530320
C441	C44	0.167110	0.133180	0.533670
C451	C45	0.357530	0.264700	0.499630
C461	C46	0.177030	0.046240	0.533990
C471	C47	0.020440	0.307260	0.497020
C481	C48	0.998210	0.249410	0.495000
C491	C49	0.943100	0.220350	0.484890
C501	C50	0.910110	0.250170	0.475300
C511	C51	0.933790	0.309080	0.476210
C521	C52	0.987660	0.336530	0.487670
C531	C53	0.918570	0.159810	0.480760
C541	C54	0.899540	0.341300	0.464700
C551	C55	0.451000	0.251600	0.895400
C561	C56	0.468060	0.313200	0.795740
C571	C57	0.476840	0.361300	0.846660
C581	C58	0.435790	0.170320	0.005290
C591	C59	0.431730	0.203310	0.030560
C601	C60	0.431340	0.179140	0.089940
C611	C61	0.434050	0.121490	0.124940
C621	C62	0.437410	0.088560	0.099690
C631	C63	0.437580	0.112410	0.040410
C641	C64	0.431350	0.217400	0.116390
C651	C65	0.444620	0.030260	0.134240
C661	C66	0.473610	0.282400	0.722990
C671	C67	0.483100	0.230390	0.755710
C681	C68	0.486150	0.195740	0.731270
C691	C69	0.478930	0.213710	0.675220
C701	C70	0.469680	0.265440	0.642800
C711	C71	0.466330	0.299220	0.666850
C721	C72	0.500370	0.142840	0.764330
C731	C73	0.466010	0.288980	0.580230
C741	C74	0.502980	0.482540	0.804280
C751	C75	0.505000	0.506790	0.744410
C761	C76	0.515110	0.572010	0.705240
C771	C77	0.524700	0.614590	0.725470
C781	C78	0.523790	0.590000	0.785290
C791	C79	0.512330	0.524670	0.824200
C801	C80	0.519240	0.600670	0.640570
C811	C81	0.535300	0.635760	0.806000
C821	C82	0.853000	0.748400	0.800600
C831	C83	0.891060	0.686800	0.845140
C841	C84	0.792040	0.638700	0.884460
C851	C85	0.824390	0.829680	0.734530
C861	C86	0.766130	0.796690	0.771580
C871	C87	0.730920	0.820860	0.747800
C881	C88	0.753570	0.878510	0.687440
C891	C89	0.811750	0.911440	0.651150
C901	C90	0.847180	0.887590	0.674830
C911	C91	0.666210	0.782600	0.786050
C921	C92	0.835500	0.969740	0.585640
C931	C93	0.994610	0.717600	0.808790
C941	C94	0.013900	0.769610	0.747290
C951	C95	0.072990	0.804260	0.709590
C961	C96	0.111070	0.786290	0.734780
C971	C97	0.091760	0.734560	0.795760
C981	C98	0.033930	0.700780	0.832890
C991	C99	0.092830	0.857160	0.642470
C1001	C100	0.130790	0.711020	0.822970
C1011	C101	0.713180	0.517460	0.979560
C1021	C102	0.748800	0.493210	0.001790
C1031	C103	0.722750	0.427990	0.056900
C1041	C104	0.659940	0.385410	0.089890
C1051	C105	0.624710	0.410000	0.066210
C1061	C106	0.651130	0.475330	0.012340
C1071	C107	0.758760	0.399330	0.081430
C1081	C108	0.558240	0.364240	0.100460
C1091	C109	0.895400	0.346400	0.853000
C1101	C110	0.795740	0.263800	0.891060
C1111	C111	0.846660	0.323500	0.792040
C1121	C112	0.005290	0.441080	0.824390
C1131	C113	0.030560	0.462290	0.766130
C1141	C114	0.089940	0.521280	0.730920
C1151	C115	0.124940	0.558990	0.753570
C1161	C116	0.099690	0.537100	0.811750
C1171	C117	0.040410	0.477990	0.847180
C1181	C118	0.116390	0.547740	0.666210
C1191	C119	0.134240	0.578860	0.835500
C1201	C120	0.722990	0.196600	0.994610
C1211	C121	0.755710	0.238810	0.013900
C1221	C122	0.731270	0.217420	0.072990
C1231	C123	0.675220	0.154150	0.111070
C1241	C124	0.642800	0.112480	0.091760
C1251	C125	0.666850	0.133180	0.033930
C1261	C126	0.764330	0.264700	0.092830
C1271	C127	0.580230	0.046240	0.130790
C1281	C128	0.804280	0.307260	0.713180
C1291	C129	0.744410	0.249410	0.748800
C1301	C130	0.705240	0.220350	0.722750
C1311	C131	0.725470	0.250170	0.659940
C1321	C132	0.785290	0.309080	0.624710
C1331	C133	0.824200	0.336530	0.651130
C1341	C134	0.640570	0.159810	0.758760
C1351	C135	0.806000	0.341300	0.558240
C1361	C136	0.800600	0.653600	0.451000
C1371	C137	0.845140	0.736200	0.468060
C1381	C138	0.884460	0.676500	0.476840
C1391	C139	0.734530	0.558920	0.435790
C1401	C140	0.771580	0.537710	0.431730
C1411	C141	0.747800	0.478720	0.431340
C1421	C142	0.687440	0.441010	0.434050
C1431	C143	0.651150	0.462900	0.437410
C1441	C144	0.674830	0.522010	0.437580
C1451	C145	0.786050	0.452260	0.431350
C1461	C146	0.585640	0.421140	0.444620
C1471	C147	0.808790	0.803400	0.473610
C1481	C148	0.747290	0.761190	0.483100
C1491	C149	0.709590	0.782580	0.486150
C1501	C150	0.734780	0.845850	0.478930
C1511	C151	0.795760	0.887520	0.469680
C1521	C152	0.832890	0.866820	0.466330
C1531	C153	0.642470	0.735300	0.500370
C1541	C154	0.822970	0.953760	0.466010
C1551	C155	0.979560	0.692740	0.502980
C1561	C156	0.001790	0.750590	0.505000
C1571	C157	0.056900	0.779650	0.515110
C1581	C158	0.089890	0.749830	0.524700
C1591	C159	0.066210	0.690920	0.523790
C1601	C160	0.012340	0.663470	0.512330
C1611	C161	0.081430	0.840190	0.519240
C1621	C162	0.100460	0.658700	0.535300
C1631	C163	0.549000	0.748400	0.104600
C1641	C164	0.531940	0.686800	0.204260
C1651	C165	0.523160	0.638700	0.153340
C1661	C166	0.564210	0.829680	0.994710
C1671	C167	0.568270	0.796690	0.969440
C1681	C168	0.568660	0.820860	0.910060
C1691	C169	0.565950	0.878510	0.875060
C1701	C170	0.562590	0.911440	0.900310
C1711	C171	0.562420	0.887590	0.959590
C1721	C172	0.568650	0.782600	0.883610
C1731	C173	0.555380	0.969740	0.865760
C1741	C174	0.526390	0.717600	0.277010
C1751	C175	0.516900	0.769610	0.244290
C1761	C176	0.513850	0.804260	0.268730
C1771	C177	0.521070	0.786290	0.324780
C1781	C178	0.530320	0.734560	0.357200
C1791	C179	0.533670	0.700780	0.333150
C1801	C180	0.499630	0.857160	0.235670
C1811	C181	0.533990	0.711020	0.419770
C1821	C182	0.497020	0.517460	0.195720
C1831	C183	0.495000	0.493210	0.255590
C1841	C184	0.484890	0.427990	0.294760
C1851	C185	0.475300	0.385410	0.274530
C1861	C186	0.476210	0.410000	0.214710
C1871	C187	0.487670	0.475330	0.175800
C1881	C188	0.480760	0.399330	0.359430
C1891	C189	0.464700	0.364240	0.194000
C1901	C190	0.147000	0.251600	0.199400
C1911	C191	0.108940	0.313200	0.154860
C1921	C192	0.207960	0.361300	0.115540
C1931	C193	0.175610	0.170320	0.265470
C1941	C194	0.233870	0.203310	0.228420
C1951	C195	0.269080	0.179140	0.252200
C1961	C196	0.246430	0.121490	0.312560
C1971	C197	0.188250	0.088560	0.348850
C1981	C198	0.152820	0.112410	0.325170
C1991	C199	0.333790	0.217400	0.213950
C2001	C200	0.164500	0.030260	0.414360
C2011	C201	0.005390	0.282400	0.191210
C2021	C202	0.986100	0.230390	0.252710
C2031	C203	0.927010	0.195740	0.290410
C2041	C204	0.888930	0.213710	0.265220
C2051	C205	0.908240	0.265440	0.204240
C2061	C206	0.966070	0.299220	0.167110
C2071	C207	0.907170	0.142840	0.357530
C2081	C208	0.869210	0.288980	0.177030
C2091	C209	0.286820	0.482540	0.020440
C2101	C210	0.251200	0.506790	0.998210
C2111	C211	0.277250	0.572010	0.943100
C2121	C212	0.340060	0.614590	0.910110
C2131	C213	0.375290	0.590000	0.933790
C2141	C214	0.348870	0.524670	0.987660
C2151	C215	0.241240	0.600670	0.918570
C2161	C216	0.441760	0.635760	0.899540
N11	N1	0.100690	0.638630	0.202940
N21	N2	0.155250	0.701610	0.098160
N31	N3	0.207060	0.726240	0.163780
N41	N4	0.054480	0.618430	0.135550
N51	N5	0.259270	0.785000	0.064730
N61	N6	0.150290	0.661440	0.264950
N71	N7	0.158430	0.361370	0.537940
N81	N8	0.200230	0.298390	0.546360
N91	N9	0.109980	0.273760	0.519180
N101	N10	0.246020	0.381570	0.563950
N111	N11	0.150270	0.215000	0.525730
N121	N12	0.073610	0.338560	0.511150
N131	N13	0.462060	0.303630	0.899310
N141	N14	0.453640	0.253410	0.844750
N151	N15	0.480820	0.370840	0.792940
N161	N16	0.436050	0.190030	0.945520
N171	N17	0.474270	0.324000	0.740730
N181	N18	0.488850	0.415240	0.849710
N191	N19	0.797060	0.696370	0.841570
N201	N20	0.901840	0.746590	0.799770
N211	N21	0.836220	0.629160	0.890020
N221	N22	0.864450	0.809970	0.753980
N231	N23	0.935270	0.676000	0.849730
N241	N24	0.735050	0.584760	0.926390
N251	N25	0.899310	0.361370	0.797060
N261	N26	0.844750	0.298390	0.901840
N271	N27	0.792940	0.273760	0.836220
N281	N28	0.945520	0.381570	0.864450
N291	N29	0.740730	0.215000	0.935270
N301	N30	0.849710	0.338560	0.735050
N311	N31	0.841570	0.638630	0.462060
N321	N32	0.799770	0.701610	0.453640
N331	N33	0.890020	0.726240	0.480820
N341	N34	0.753980	0.618430	0.436050
N351	N35	0.849730	0.785000	0.474270
N361	N36	0.926390	0.661440	0.488850
N371	N37	0.537940	0.696370	0.100690
N381	N38	0.546360	0.746590	0.155250
N391	N39	0.519180	0.629160	0.207060
N401	N40	0.563950	0.809970	0.054480
N411	N41	0.525730	0.676000	0.259270
N421	N42	0.511150	0.584760	0.150290
N431	N43	0.202940	0.303630	0.158430
N441	N44	0.098160	0.253410	0.200230
N451	N45	0.163780	0.370840	0.109980
N461	N46	0.135550	0.190030	0.246020
N471	N47	0.064730	0.324000	0.150270
N481	N48	0.264950	0.415240	0.073610
O11	O1	0.914930	0.488440	0.352570
O21	O2	0.832180	0.393530	0.365330
O31	O3	0.812820	0.366150	0.198550
O41	O4	0.892530	0.442310	0.112020
O51	O5	0.188190	0.674830	0.945760
O61	O6	0.259020	0.759480	0.852400
O71	O7	0.442820	0.968150	0.818650
O81	O8	0.445490	0.989080	0.890610
O91	O9	0.381180	0.860100	0.187600
O101	O10	0.389540	0.867390	0.267470
O111	O11	0.226590	0.692290	0.461620
O121	O12	0.143930	0.597700	0.474350
O131	O13	0.158990	0.511560	0.573510
O141	O14	0.241140	0.606470	0.561350
O151	O15	0.435300	0.633850	0.553330
O161	O16	0.445670	0.557690	0.549780
O171	O17	0.379410	0.325170	0.486640
O181	O18	0.388120	0.240520	0.500460
O191	O19	0.213200	0.031850	0.525330
O201	O20	0.120310	0.010920	0.543590
O211	O21	0.952300	0.139900	0.478920
O221	O22	0.865140	0.132610	0.477850
O231	O23	0.846090	0.307710	0.465700
O241	O24	0.927950	0.402300	0.453770
O251	O25	0.426490	0.267500	0.085070
O261	O26	0.438650	0.197510	0.167820
O271	O27	0.446670	0.011370	0.187180
O281	O28	0.450220	0.004550	0.107470
O291	O29	0.513360	0.133950	0.811810
O301	O30	0.499540	0.111420	0.740980
O311	O31	0.474670	0.261470	0.557180
O321	O32	0.456410	0.336100	0.554510
O331	O33	0.521080	0.568780	0.618820
O341	O34	0.522150	0.657010	0.610460
O351	O35	0.534300	0.688210	0.773410
O361	O36	0.546230	0.618280	0.856070
O371	O37	0.647430	0.732500	0.841010
O381	O38	0.634670	0.802490	0.758860
O391	O39	0.801450	0.988630	0.564700
O401	O40	0.887980	0.995450	0.554330
O411	O41	0.054240	0.866050	0.620590
O421	O42	0.147600	0.888580	0.611880
O431	O43	0.181350	0.738530	0.786800
O441	O44	0.109390	0.663900	0.879690
O451	O45	0.812400	0.431220	0.047700
O461	O46	0.732530	0.342990	0.134860
O471	O47	0.538380	0.311790	0.153910
O481	O48	0.525650	0.381720	0.072050
O491	O49	0.085070	0.511560	0.647430
O501	O50	0.167820	0.606470	0.634670
O511	O51	0.187180	0.633850	0.801450
O521	O52	0.107470	0.557690	0.887980
O531	O53	0.811810	0.325170	0.054240
O541	O54	0.740980	0.240520	0.147600
O551	O55	0.557180	0.031850	0.181350
O561	O56	0.554510	0.010920	0.109390
O571	O57	0.618820	0.139900	0.812400
O581	O58	0.610460	0.132610	0.732530
O591	O59	0.773410	0.307710	0.538380
O601	O60	0.856070	0.402300	0.525650
O611	O61	0.841010	0.488440	0.426490
O621	O62	0.758860	0.393530	0.438650
O631	O63	0.564700	0.366150	0.446670
O641	O64	0.554330	0.442310	0.450220
O651	O65	0.620590	0.674830	0.513360
O661	O66	0.611880	0.759480	0.499540
O671	O67	0.786800	0.968150	0.474670
O681	O68	0.879690	0.989080	0.456410
O691	O69	0.047700	0.860100	0.521080
O701	O70	0.134860	0.867390	0.522150
O711	O71	0.153910	0.692290	0.534300
O721	O72	0.072050	0.597700	0.546230
O731	O73	0.573510	0.732500	0.914930
O741	O74	0.561350	0.802490	0.832180
O751	O75	0.553330	0.988630	0.812820
O761	O76	0.549780	0.995450	0.892530
O771	O77	0.486640	0.866050	0.188190
O781	O78	0.500460	0.888580	0.259020
O791	O79	0.525330	0.738530	0.442820
O801	O80	0.543590	0.663900	0.445490
O811	O81	0.478920	0.431220	0.381180
O821	O82	0.477850	0.342990	0.389540
O831	O83	0.465700	0.311790	0.226590
O841	O84	0.453770	0.381720	0.143930
O851	O85	0.352570	0.267500	0.158990
O861	O86	0.365330	0.197510	0.241140
O871	O87	0.198550	0.011370	0.435300
O881	O88	0.112020	0.004550	0.445670
O891	O89	0.945760	0.133950	0.379410
O901	O90	0.852400	0.111420	0.388120
O911	O91	0.818650	0.261470	0.213200
O921	O92	0.890610	0.336100	0.120310
O931	O93	0.187600	0.568780	0.952300
O941	O94	0.267470	0.657010	0.865140
O951	O95	0.461620	0.688210	0.846090
O961	O96	0.474350	0.618280	0.927950
