data_XALXUF_clean_PM
_symmetry_space_group_name_H-M	'P1'
_cell_length_a	26.670000
_cell_length_b	26.670000
_cell_length_c	26.785000
_cell_angle_alpha	60.141900
_cell_angle_beta	60.141900
_cell_angle_gamma	90.000000
_symmetry_Int_Tables_number 1

loop_
_symmetry_equiv_pos_as_xyz
'x,y,z'

loop_
_atom_site_label
_atom_site_type_symbol
_atom_site_fract_x
_atom_site_fract_y
_atom_site_fract_z
Cu11	Cu1	0.965880	0.038190	0.605440
Cu21	Cu2	0.973760	0.028850	0.703960
Cu31	Cu3	0.428680	0.356370	0.605440
Cu41	Cu4	0.322280	0.267190	0.703960
Cu51	Cu5	0.038190	0.428680	0.605440
Cu61	Cu6	0.028850	0.322280	0.703960
Cu71	Cu7	0.356370	0.965880	0.605440
Cu81	Cu8	0.267190	0.973760	0.703960
Cu91	Cu9	0.034120	0.961810	0.394560
Cu101	Cu10	0.026240	0.971150	0.296040
Cu111	Cu11	0.571320	0.643630	0.394560
Cu121	Cu12	0.677720	0.732810	0.296040
Cu131	Cu13	0.961810	0.571320	0.394560
Cu141	Cu14	0.971150	0.677720	0.296040
Cu151	Cu15	0.643630	0.034120	0.394560
Cu161	Cu16	0.732810	0.026240	0.296040
Cu171	Cu17	0.391830	0.933470	0.000000
Cu181	Cu18	0.705430	0.049980	0.000000
Cu191	Cu19	0.608170	0.066530	0.000000
Cu201	Cu20	0.294570	0.950020	0.000000
Cu211	Cu21	0.933470	0.608170	0.000000
Cu221	Cu22	0.049980	0.294570	0.000000
Cu231	Cu23	0.066530	0.391830	0.000000
Cu241	Cu24	0.950020	0.705430	0.000000
H11	H1	0.669400	0.067000	0.164200
H21	H2	0.512800	0.077300	0.176600
H31	H3	0.527300	0.063400	0.326200
H41	H4	0.201100	0.966700	0.172600
H51	H5	0.367800	0.989100	0.136000
H61	H6	0.230200	0.997400	0.288800
H71	H7	0.294400	0.016900	0.469200
H81	H8	0.145700	0.050500	0.470800
H91	H9	0.157100	0.021400	0.627600
H101	H10	0.442100	0.075700	0.328400
H111	H11	0.388900	0.012300	0.194600
H121	H12	0.218700	0.046200	0.384600
H131	H13	0.166400	0.768800	0.164200
H141	H14	0.310600	0.746100	0.176600
H151	H15	0.146500	0.610400	0.326200
H161	H16	0.626300	0.860700	0.172600
H171	H17	0.496200	0.874900	0.136000
H181	H18	0.481000	0.713800	0.288800
H191	H19	0.236400	0.513900	0.469200
H201	H20	0.383500	0.478700	0.470800
H211	H21	0.215300	0.351000	0.627600
H221	H22	0.229500	0.595900	0.328400
H231	H23	0.416500	0.793100	0.194600
H241	H24	0.396700	0.569200	0.384600
H251	H25	0.067000	0.166400	0.164200
H261	H26	0.077300	0.310600	0.176600
H271	H27	0.063400	0.146500	0.326200
H281	H28	0.966700	0.626300	0.172600
H291	H29	0.989100	0.496200	0.136000
H301	H30	0.997400	0.481000	0.288800
H311	H31	0.016900	0.236400	0.469200
H321	H32	0.050500	0.383500	0.470800
H331	H33	0.021400	0.215300	0.627600
H341	H34	0.075700	0.229500	0.328400
H351	H35	0.012300	0.416500	0.194600
H361	H36	0.046200	0.396700	0.384600
H371	H37	0.768800	0.669400	0.164200
H381	H38	0.746100	0.512800	0.176600
H391	H39	0.610400	0.527300	0.326200
H401	H40	0.860700	0.201100	0.172600
H411	H41	0.874900	0.367800	0.136000
H421	H42	0.713800	0.230200	0.288800
H431	H43	0.513900	0.294400	0.469200
H441	H44	0.478700	0.145700	0.470800
H451	H45	0.351000	0.157100	0.627600
H461	H46	0.595900	0.442100	0.328400
H471	H47	0.793100	0.388900	0.194600
H481	H48	0.569200	0.218700	0.384600
H491	H49	0.330600	0.933000	0.835800
H501	H50	0.487200	0.922700	0.823400
H511	H51	0.472700	0.936600	0.673800
H521	H52	0.798900	0.033300	0.827400
H531	H53	0.632200	0.010900	0.864000
H541	H54	0.769800	0.002600	0.711200
H551	H55	0.705600	0.983100	0.530800
H561	H56	0.854300	0.949500	0.529200
H571	H57	0.842900	0.978600	0.372400
H581	H58	0.557900	0.924300	0.671600
H591	H59	0.611100	0.987700	0.805400
H601	H60	0.781300	0.953800	0.615400
H611	H61	0.833600	0.231200	0.835800
H621	H62	0.689400	0.253900	0.823400
H631	H63	0.853500	0.389600	0.673800
H641	H64	0.373700	0.139300	0.827400
H651	H65	0.503800	0.125100	0.864000
H661	H66	0.519000	0.286200	0.711200
H671	H67	0.763600	0.486100	0.530800
H681	H68	0.616500	0.521300	0.529200
H691	H69	0.784700	0.649000	0.372400
H701	H70	0.770500	0.404100	0.671600
H711	H71	0.583500	0.206900	0.805400
H721	H72	0.603300	0.430800	0.615400
H731	H73	0.933000	0.833600	0.835800
H741	H74	0.922700	0.689400	0.823400
H751	H75	0.936600	0.853500	0.673800
H761	H76	0.033300	0.373700	0.827400
H771	H77	0.010900	0.503800	0.864000
H781	H78	0.002600	0.519000	0.711200
H791	H79	0.983100	0.763600	0.530800
H801	H80	0.949500	0.616500	0.529200
H811	H81	0.978600	0.784700	0.372400
H821	H82	0.924300	0.770500	0.671600
H831	H83	0.987700	0.583500	0.805400
H841	H84	0.953800	0.603300	0.615400
H851	H85	0.231200	0.330600	0.835800
H861	H86	0.253900	0.487200	0.823400
H871	H87	0.389600	0.472700	0.673800
H881	H88	0.139300	0.798900	0.827400
H891	H89	0.125100	0.632200	0.864000
H901	H90	0.286200	0.769800	0.711200
H911	H91	0.486100	0.705600	0.530800
H921	H92	0.521300	0.854300	0.529200
H931	H93	0.649000	0.842900	0.372400
H941	H94	0.404100	0.557900	0.671600
H951	H95	0.206900	0.611100	0.805400
H961	H96	0.430800	0.781300	0.615400
C11	C1	0.618810	0.070980	0.097680
C21	C2	0.637710	0.055590	0.281460
C31	C3	0.628640	0.067270	0.188140
C41	C4	0.593500	0.070420	0.162220
C51	C5	0.602910	0.064440	0.249720
C61	C6	0.535260	0.072630	0.196280
C71	C7	0.508240	0.068240	0.258820
C81	C8	0.543970	0.065090	0.284500
C91	C9	0.398230	0.053130	0.301340
C101	C10	0.349180	0.028780	0.263240
C111	C11	0.298800	0.042900	0.350200
C121	C12	0.207850	0.981920	0.236740
C131	C13	0.287420	0.974580	0.147240
C141	C14	0.308950	0.962210	0.093120
C151	C15	0.228120	0.973350	0.183680
C161	C16	0.326620	0.987800	0.161760
C171	C17	0.245760	0.993160	0.251080
C181	C18	0.308410	0.999310	0.212380
C191	C19	0.143590	0.037620	0.553760
C201	C20	0.256110	0.022790	0.490300
C211	C21	0.224850	0.036950	0.458300
C221	C22	0.168120	0.042870	0.490980
C231	C23	0.173980	0.025030	0.584800
C241	C24	0.079130	0.039790	0.590480
C251	C25	0.141960	0.977640	0.278580
C261	C26	0.263940	0.000560	0.587580
C271	C27	0.231690	0.017420	0.551440
C281	C28	0.283510	0.831340	0.097680
C291	C29	0.080830	0.662950	0.281460
C301	C30	0.183220	0.744590	0.188140
C311	C31	0.244280	0.767360	0.162220
C321	C32	0.147370	0.685840	0.249720
C331	C33	0.268460	0.731090	0.196280
C341	C34	0.232940	0.672940	0.258820
C351	C35	0.171530	0.650410	0.284500
C361	C36	0.300430	0.645530	0.301340
C371	C37	0.387580	0.707980	0.263240
C381	C38	0.351000	0.606900	0.350200
C391	C39	0.555410	0.781340	0.236740
C401	C40	0.565340	0.878180	0.147240
C411	C41	0.597930	0.944670	0.093120
C421	C42	0.588200	0.842970	0.183680
C431	C43	0.511620	0.850440	0.161760
C441	C44	0.503160	0.755760	0.251080
C451	C45	0.479210	0.788310	0.212380
C461	C46	0.302650	0.408620	0.553760
C471	C47	0.253590	0.486910	0.490300
C481	C48	0.316850	0.504750	0.458300
C491	C49	0.340900	0.466150	0.490980
C501	C50	0.241220	0.390170	0.584800
C511	C51	0.330390	0.369730	0.590480
C521	C52	0.579460	0.743780	0.278580
C531	C53	0.148480	0.411860	0.587580
C541	C54	0.216870	0.431140	0.551440
C551	C55	0.070980	0.283510	0.097680
C561	C56	0.055590	0.080830	0.281460
C571	C57	0.067270	0.183220	0.188140
C581	C58	0.070420	0.244280	0.162220
C591	C59	0.064440	0.147370	0.249720
C601	C60	0.072630	0.268460	0.196280
C611	C61	0.068240	0.232940	0.258820
C621	C62	0.065090	0.171530	0.284500
C631	C63	0.053130	0.300430	0.301340
C641	C64	0.028780	0.387580	0.263240
C651	C65	0.042900	0.351000	0.350200
C661	C66	0.981920	0.555410	0.236740
C671	C67	0.974580	0.565340	0.147240
C681	C68	0.962210	0.597930	0.093120
C691	C69	0.973350	0.588200	0.183680
C701	C70	0.987800	0.511620	0.161760
C711	C71	0.993160	0.503160	0.251080
C721	C72	0.999310	0.479210	0.212380
C731	C73	0.037620	0.302650	0.553760
C741	C74	0.022790	0.253590	0.490300
C751	C75	0.036950	0.316850	0.458300
C761	C76	0.042870	0.340900	0.490980
C771	C77	0.025030	0.241220	0.584800
C781	C78	0.039790	0.330390	0.590480
C791	C79	0.977640	0.579460	0.278580
C801	C80	0.000560	0.148480	0.587580
C811	C81	0.017420	0.216870	0.551440
C821	C82	0.831340	0.618810	0.097680
C831	C83	0.662950	0.637710	0.281460
C841	C84	0.744590	0.628640	0.188140
C851	C85	0.767360	0.593500	0.162220
C861	C86	0.685840	0.602910	0.249720
C871	C87	0.731090	0.535260	0.196280
C881	C88	0.672940	0.508240	0.258820
C891	C89	0.650410	0.543970	0.284500
C901	C90	0.645530	0.398230	0.301340
C911	C91	0.707980	0.349180	0.263240
C921	C92	0.606900	0.298800	0.350200
C931	C93	0.781340	0.207850	0.236740
C941	C94	0.878180	0.287420	0.147240
C951	C95	0.944670	0.308950	0.093120
C961	C96	0.842970	0.228120	0.183680
C971	C97	0.850440	0.326620	0.161760
C981	C98	0.755760	0.245760	0.251080
C991	C99	0.788310	0.308410	0.212380
C1001	C100	0.408620	0.143590	0.553760
C1011	C101	0.486910	0.256110	0.490300
C1021	C102	0.504750	0.224850	0.458300
C1031	C103	0.466150	0.168120	0.490980
C1041	C104	0.390170	0.173980	0.584800
C1051	C105	0.369730	0.079130	0.590480
C1061	C106	0.743780	0.141960	0.278580
C1071	C107	0.411860	0.263940	0.587580
C1081	C108	0.431140	0.231690	0.551440
C1091	C109	0.381190	0.929020	0.902320
C1101	C110	0.362290	0.944410	0.718540
C1111	C111	0.371360	0.932730	0.811860
C1121	C112	0.406500	0.929580	0.837780
C1131	C113	0.397090	0.935560	0.750280
C1141	C114	0.464740	0.927370	0.803720
C1151	C115	0.491760	0.931760	0.741180
C1161	C116	0.456030	0.934910	0.715500
C1171	C117	0.601770	0.946870	0.698660
C1181	C118	0.650820	0.971220	0.736760
C1191	C119	0.701200	0.957100	0.649800
C1201	C120	0.792150	0.018080	0.763260
C1211	C121	0.712580	0.025420	0.852760
C1221	C122	0.691050	0.037790	0.906880
C1231	C123	0.771880	0.026650	0.816320
C1241	C124	0.673380	0.012200	0.838240
C1251	C125	0.754240	0.006840	0.748920
C1261	C126	0.691590	0.000690	0.787620
C1271	C127	0.856410	0.962380	0.446240
C1281	C128	0.743890	0.977210	0.509700
C1291	C129	0.775150	0.963050	0.541700
C1301	C130	0.831880	0.957130	0.509020
C1311	C131	0.826020	0.974970	0.415200
C1321	C132	0.920870	0.960210	0.409520
C1331	C133	0.858040	0.022360	0.721420
C1341	C134	0.736060	0.999440	0.412420
C1351	C135	0.768310	0.982580	0.448560
C1361	C136	0.716490	0.168660	0.902320
C1371	C137	0.919170	0.337050	0.718540
C1381	C138	0.816780	0.255410	0.811860
C1391	C139	0.755720	0.232640	0.837780
C1401	C140	0.852630	0.314160	0.750280
C1411	C141	0.731540	0.268910	0.803720
C1421	C142	0.767060	0.327060	0.741180
C1431	C143	0.828470	0.349590	0.715500
C1441	C144	0.699570	0.354470	0.698660
C1451	C145	0.612420	0.292020	0.736760
C1461	C146	0.649000	0.393100	0.649800
C1471	C147	0.444590	0.218660	0.763260
C1481	C148	0.434660	0.121820	0.852760
C1491	C149	0.402070	0.055330	0.906880
C1501	C150	0.411800	0.157030	0.816320
C1511	C151	0.488380	0.149560	0.838240
C1521	C152	0.496840	0.244240	0.748920
C1531	C153	0.520790	0.211690	0.787620
C1541	C154	0.697350	0.591380	0.446240
C1551	C155	0.746410	0.513090	0.509700
C1561	C156	0.683150	0.495250	0.541700
C1571	C157	0.659100	0.533850	0.509020
C1581	C158	0.758780	0.609830	0.415200
C1591	C159	0.669610	0.630270	0.409520
C1601	C160	0.420540	0.256220	0.721420
C1611	C161	0.851520	0.588140	0.412420
C1621	C162	0.783130	0.568860	0.448560
C1631	C163	0.929020	0.716490	0.902320
C1641	C164	0.944410	0.919170	0.718540
C1651	C165	0.932730	0.816780	0.811860
C1661	C166	0.929580	0.755720	0.837780
C1671	C167	0.935560	0.852630	0.750280
C1681	C168	0.927370	0.731540	0.803720
C1691	C169	0.931760	0.767060	0.741180
C1701	C170	0.934910	0.828470	0.715500
C1711	C171	0.946870	0.699570	0.698660
C1721	C172	0.971220	0.612420	0.736760
C1731	C173	0.957100	0.649000	0.649800
C1741	C174	0.018080	0.444590	0.763260
C1751	C175	0.025420	0.434660	0.852760
C1761	C176	0.037790	0.402070	0.906880
C1771	C177	0.026650	0.411800	0.816320
C1781	C178	0.012200	0.488380	0.838240
C1791	C179	0.006840	0.496840	0.748920
C1801	C180	0.000690	0.520790	0.787620
C1811	C181	0.962380	0.697350	0.446240
C1821	C182	0.977210	0.746410	0.509700
C1831	C183	0.963050	0.683150	0.541700
C1841	C184	0.957130	0.659100	0.509020
C1851	C185	0.974970	0.758780	0.415200
C1861	C186	0.960210	0.669610	0.409520
C1871	C187	0.022360	0.420540	0.721420
C1881	C188	0.999440	0.851520	0.412420
C1891	C189	0.982580	0.783130	0.448560
C1901	C190	0.168660	0.381190	0.902320
C1911	C191	0.337050	0.362290	0.718540
C1921	C192	0.255410	0.371360	0.811860
C1931	C193	0.232640	0.406500	0.837780
C1941	C194	0.314160	0.397090	0.750280
C1951	C195	0.268910	0.464740	0.803720
C1961	C196	0.327060	0.491760	0.741180
C1971	C197	0.349590	0.456030	0.715500
C1981	C198	0.354470	0.601770	0.698660
C1991	C199	0.292020	0.650820	0.736760
C2001	C200	0.393100	0.701200	0.649800
C2011	C201	0.218660	0.792150	0.763260
C2021	C202	0.121820	0.712580	0.852760
C2031	C203	0.055330	0.691050	0.906880
C2041	C204	0.157030	0.771880	0.816320
C2051	C205	0.149560	0.673380	0.838240
C2061	C206	0.244240	0.754240	0.748920
C2071	C207	0.211690	0.691590	0.787620
C2081	C208	0.591380	0.856410	0.446240
C2091	C209	0.513090	0.743890	0.509700
C2101	C210	0.495250	0.775150	0.541700
C2111	C211	0.533850	0.831880	0.509020
C2121	C212	0.609830	0.826020	0.415200
C2131	C213	0.630270	0.920870	0.409520
C2141	C214	0.256220	0.858040	0.721420
C2151	C215	0.588140	0.736060	0.412420
C2161	C216	0.568860	0.768310	0.448560
N11	N1	0.348500	0.055950	0.347860
N21	N2	0.297770	0.032160	0.306840
N31	N3	0.401490	0.037520	0.258520
N41	N4	0.448270	0.066400	0.299080
N51	N5	0.352830	0.013560	0.221100
N61	N6	0.245290	0.042490	0.395400
N71	N7	0.303640	0.596190	0.347860
N81	N8	0.395390	0.661000	0.306840
N91	N9	0.339990	0.703960	0.258520
N101	N10	0.252650	0.634520	0.299080
N111	N11	0.426070	0.765340	0.221100
N121	N12	0.359310	0.562110	0.395400
N131	N13	0.055950	0.303640	0.347860
N141	N14	0.032160	0.395390	0.306840
N151	N15	0.037520	0.339990	0.258520
N161	N16	0.066400	0.252650	0.299080
N171	N17	0.013560	0.426070	0.221100
N181	N18	0.042490	0.359310	0.395400
N191	N19	0.596190	0.348500	0.347860
N201	N20	0.661000	0.297770	0.306840
N211	N21	0.703960	0.401490	0.258520
N221	N22	0.634520	0.448270	0.299080
N231	N23	0.765340	0.352830	0.221100
N241	N24	0.562110	0.245290	0.395400
N251	N25	0.651500	0.944050	0.652140
N261	N26	0.702230	0.967840	0.693160
N271	N27	0.598510	0.962480	0.741480
N281	N28	0.551730	0.933600	0.700920
N291	N29	0.647170	0.986440	0.778900
N301	N30	0.754710	0.957510	0.604600
N311	N31	0.696360	0.403810	0.652140
N321	N32	0.604610	0.339000	0.693160
N331	N33	0.660010	0.296040	0.741480
N341	N34	0.747350	0.365480	0.700920
N351	N35	0.573930	0.234660	0.778900
N361	N36	0.640690	0.437890	0.604600
N371	N37	0.944050	0.696360	0.652140
N381	N38	0.967840	0.604610	0.693160
N391	N39	0.962480	0.660010	0.741480
N401	N40	0.933600	0.747350	0.700920
N411	N41	0.986440	0.573930	0.778900
N421	N42	0.957510	0.640690	0.604600
N431	N43	0.403810	0.651500	0.652140
N441	N44	0.339000	0.702230	0.693160
N451	N45	0.296040	0.598510	0.741480
N461	N46	0.365480	0.551730	0.700920
N471	N47	0.234660	0.647170	0.778900
N481	N48	0.437890	0.754710	0.604600
O11	O1	0.357680	0.950200	0.072220
O21	O2	0.587670	0.077000	0.074300
O31	O3	0.670790	0.064620	0.073160
O41	O4	0.057270	0.030380	0.650320
O51	O5	0.053090	0.049480	0.560240
O61	O6	0.309760	0.985490	0.563440
O71	O7	0.240570	0.001650	0.641620
O81	O8	0.109850	0.972420	0.257440
O91	O9	0.121500	0.975980	0.333260
O101	O10	0.274650	0.963690	0.072440
O111	O11	0.611250	0.051070	0.338380
O121	O12	0.690550	0.052840	0.249940
O131	O13	0.570100	0.977580	0.072220
O141	O14	0.338030	0.848700	0.074300
O151	O15	0.256050	0.862220	0.073160
O161	O16	0.292410	0.319300	0.650320
O171	O17	0.386670	0.390280	0.560240
O181	O18	0.126800	0.451070	0.563440
O191	O19	0.117810	0.356730	0.641620
O201	O20	0.632710	0.770140	0.257440
O211	O21	0.545240	0.690760	0.333260
O221	O22	0.652910	0.963870	0.072440
O231	O23	0.050370	0.610550	0.338380
O241	O24	0.059510	0.697220	0.249940
O251	O25	0.950200	0.570100	0.072220
O261	O26	0.077000	0.338030	0.074300
O271	O27	0.064620	0.256050	0.073160
O281	O28	0.030380	0.292410	0.650320
O291	O29	0.049480	0.386670	0.560240
O301	O30	0.985490	0.126800	0.563440
O311	O31	0.001650	0.117810	0.641620
O321	O32	0.972420	0.632710	0.257440
O331	O33	0.975980	0.545240	0.333260
O341	O34	0.963690	0.652910	0.072440
O351	O35	0.051070	0.050370	0.338380
O361	O36	0.052840	0.059510	0.249940
O371	O37	0.977580	0.357680	0.072220
O381	O38	0.848700	0.587670	0.074300
O391	O39	0.862220	0.670790	0.073160
O401	O40	0.319300	0.057270	0.650320
O411	O41	0.390280	0.053090	0.560240
O421	O42	0.451070	0.309760	0.563440
O431	O43	0.356730	0.240570	0.641620
O441	O44	0.770140	0.109850	0.257440
O451	O45	0.690760	0.121500	0.333260
O461	O46	0.963870	0.274650	0.072440
O471	O47	0.610550	0.611250	0.338380
O481	O48	0.697220	0.690550	0.249940
O491	O49	0.642320	0.049800	0.927780
O501	O50	0.412330	0.923000	0.925700
O511	O51	0.329210	0.935380	0.926840
O521	O52	0.942730	0.969620	0.349680
O531	O53	0.946910	0.950520	0.439760
O541	O54	0.690240	0.014510	0.436560
O551	O55	0.759430	0.998350	0.358380
O561	O56	0.890150	0.027580	0.742560
O571	O57	0.878500	0.024020	0.666740
O581	O58	0.725350	0.036310	0.927560
O591	O59	0.388750	0.948930	0.661620
O601	O60	0.309450	0.947160	0.750060
O611	O61	0.429900	0.022420	0.927780
O621	O62	0.661970	0.151300	0.925700
O631	O63	0.743950	0.137780	0.926840
O641	O64	0.707590	0.680700	0.349680
O651	O65	0.613330	0.609720	0.439760
O661	O66	0.873200	0.548930	0.436560
O671	O67	0.882190	0.643270	0.358380
O681	O68	0.367290	0.229860	0.742560
O691	O69	0.454760	0.309240	0.666740
O701	O70	0.347090	0.036130	0.927560
O711	O71	0.949630	0.389450	0.661620
O721	O72	0.940490	0.302780	0.750060
O731	O73	0.049800	0.429900	0.927780
O741	O74	0.923000	0.661970	0.925700
O751	O75	0.935380	0.743950	0.926840
O761	O76	0.969620	0.707590	0.349680
O771	O77	0.950520	0.613330	0.439760
O781	O78	0.014510	0.873200	0.436560
O791	O79	0.998350	0.882190	0.358380
O801	O80	0.027580	0.367290	0.742560
O811	O81	0.024020	0.454760	0.666740
O821	O82	0.036310	0.347090	0.927560
O831	O83	0.948930	0.949630	0.661620
O841	O84	0.947160	0.940490	0.750060
O851	O85	0.022420	0.642320	0.927780
O861	O86	0.151300	0.412330	0.925700
O871	O87	0.137780	0.329210	0.926840
O881	O88	0.680700	0.942730	0.349680
O891	O89	0.609720	0.946910	0.439760
O901	O90	0.548930	0.690240	0.436560
O911	O91	0.643270	0.759430	0.358380
O921	O92	0.229860	0.890150	0.742560
O931	O93	0.309240	0.878500	0.666740
O941	O94	0.036130	0.725350	0.927560
O951	O95	0.389450	0.388750	0.661620
O961	O96	0.302780	0.309450	0.750060
