data_XAMDUM_clean_PM
_symmetry_space_group_name_H-M	'P1'
_cell_length_a	18.622900
_cell_length_b	18.622900
_cell_length_c	18.622900
_cell_angle_alpha	60.000000
_cell_angle_beta	60.000000
_cell_angle_gamma	60.000000
_symmetry_Int_Tables_number 1

loop_
_symmetry_equiv_pos_as_xyz
'x,y,z'

loop_
_atom_site_label
_atom_site_type_symbol
_atom_site_fract_x
_atom_site_fract_y
_atom_site_fract_z
Cu11	Cu1	0.000000	0.430000	0.570000
Cu21	Cu2	0.430000	0.000000	0.000000
Cu31	Cu3	0.570000	0.000000	0.000000
Cu41	Cu4	0.000000	0.570000	0.430000
Cu51	Cu5	0.000000	0.570000	0.000000
Cu61	Cu6	0.430000	0.000000	0.570000
Cu71	Cu7	0.570000	0.000000	0.430000
Cu81	Cu8	0.000000	0.430000	0.000000
Cu91	Cu9	0.000000	0.000000	0.430000
Cu101	Cu10	0.430000	0.570000	0.000000
Cu111	Cu11	0.570000	0.430000	0.000000
Cu121	Cu12	0.000000	0.000000	0.570000
H11	H1	0.971800	0.270400	0.487400
H21	H2	0.270400	0.971800	0.270400
H31	H3	0.487400	0.270400	0.971800
H41	H4	0.270400	0.487400	0.270400
H51	H5	0.971800	0.487400	0.270400
H61	H6	0.270400	0.270400	0.487400
H71	H7	0.487400	0.971800	0.270400
H81	H8	0.270400	0.270400	0.971800
H91	H9	0.971800	0.270400	0.270400
H101	H10	0.270400	0.487400	0.971800
H111	H11	0.487400	0.270400	0.270400
H121	H12	0.270400	0.971800	0.487400
H131	H13	0.729600	0.028200	0.512600
H141	H14	0.028200	0.729600	0.729600
H151	H15	0.729600	0.512600	0.028200
H161	H16	0.512600	0.729600	0.729600
H171	H17	0.512600	0.028200	0.729600
H181	H18	0.729600	0.729600	0.512600
H191	H19	0.028200	0.512600	0.729600
H201	H20	0.729600	0.729600	0.028200
H211	H21	0.729600	0.028200	0.729600
H221	H22	0.512600	0.729600	0.028200
H231	H23	0.729600	0.512600	0.729600
H241	H24	0.028200	0.729600	0.512600
C11	C1	0.970920	0.300100	0.428880
C21	C2	0.300100	0.970920	0.300100
C31	C3	0.428880	0.300100	0.970920
C41	C4	0.300100	0.428880	0.300100
C51	C5	0.970920	0.428880	0.300100
C61	C6	0.300100	0.300100	0.428880
C71	C7	0.428880	0.970920	0.300100
C81	C8	0.300100	0.300100	0.970920
C91	C9	0.970920	0.300100	0.300100
C101	C10	0.300100	0.428880	0.970920
C111	C11	0.428880	0.300100	0.300100
C121	C12	0.300100	0.970920	0.428880
C131	C13	0.699900	0.029080	0.571120
C141	C14	0.029080	0.699900	0.699900
C151	C15	0.699900	0.571120	0.029080
C161	C16	0.571120	0.699900	0.699900
C171	C17	0.571120	0.029080	0.699900
C181	C18	0.699900	0.699900	0.571120
C191	C19	0.029080	0.571120	0.699900
C201	C20	0.699900	0.699900	0.029080
C211	C21	0.699900	0.029080	0.699900
C221	C22	0.571120	0.699900	0.029080
C231	C23	0.699900	0.571120	0.699900
C241	C24	0.029080	0.699900	0.571120
C251	C25	0.970400	0.386300	0.386300
C261	C26	0.977220	0.430200	0.430200
C271	C27	0.386300	0.970400	0.257000
C281	C28	0.430200	0.977220	0.162380
C291	C29	0.386300	0.257000	0.970400
C301	C30	0.430200	0.162380	0.977220
C311	C31	0.257000	0.386300	0.386300
C321	C32	0.162380	0.430200	0.430200
C331	C33	0.970400	0.386300	0.257000
C341	C34	0.977220	0.430200	0.162380
C351	C35	0.386300	0.257000	0.386300
C361	C36	0.430200	0.162380	0.430200
C371	C37	0.386300	0.970400	0.386300
C381	C38	0.430200	0.977220	0.430200
C391	C39	0.257000	0.386300	0.970400
C401	C40	0.162380	0.430200	0.977220
C411	C41	0.970400	0.257000	0.386300
C421	C42	0.977220	0.162380	0.430200
C431	C43	0.386300	0.386300	0.970400
C441	C44	0.430200	0.430200	0.977220
C451	C45	0.386300	0.386300	0.257000
C461	C46	0.430200	0.430200	0.162380
C471	C47	0.257000	0.970400	0.386300
C481	C48	0.162380	0.977220	0.430200
C491	C49	0.613700	0.029600	0.613700
C501	C50	0.569800	0.022780	0.569800
C511	C51	0.029600	0.613700	0.743000
C521	C52	0.022780	0.569800	0.837620
C531	C53	0.743000	0.613700	0.029600
C541	C54	0.837620	0.569800	0.022780
C551	C55	0.613700	0.743000	0.613700
C561	C56	0.569800	0.837620	0.569800
C571	C57	0.613700	0.029600	0.743000
C581	C58	0.569800	0.022780	0.837620
C591	C59	0.743000	0.613700	0.613700
C601	C60	0.837620	0.569800	0.569800
C611	C61	0.029600	0.613700	0.613700
C621	C62	0.022780	0.569800	0.569800
C631	C63	0.613700	0.743000	0.029600
C641	C64	0.569800	0.837620	0.022780
C651	C65	0.743000	0.029600	0.613700
C661	C66	0.837620	0.022780	0.569800
C671	C67	0.613700	0.613700	0.029600
C681	C68	0.569800	0.569800	0.022780
C691	C69	0.613700	0.613700	0.743000
C701	C70	0.569800	0.569800	0.837620
C711	C71	0.029600	0.743000	0.613700
C721	C72	0.022780	0.837620	0.569800
O11	O1	0.979960	0.387400	0.506840
O21	O2	0.387400	0.979960	0.125800
O31	O3	0.506840	0.125800	0.979960
O41	O4	0.125800	0.506840	0.387400
O51	O5	0.979960	0.506840	0.125800
O61	O6	0.387400	0.125800	0.506840
O71	O7	0.506840	0.979960	0.387400
O81	O8	0.125800	0.387400	0.979960
O91	O9	0.979960	0.125800	0.387400
O101	O10	0.387400	0.506840	0.979960
O111	O11	0.506840	0.387400	0.125800
O121	O12	0.125800	0.979960	0.506840
O131	O13	0.612600	0.020040	0.493160
O141	O14	0.020040	0.612600	0.874200
O151	O15	0.874200	0.493160	0.020040
O161	O16	0.493160	0.874200	0.612600
O171	O17	0.493160	0.020040	0.874200
O181	O18	0.874200	0.612600	0.493160
O191	O19	0.020040	0.493160	0.612600
O201	O20	0.612600	0.874200	0.020040
O211	O21	0.874200	0.020040	0.612600
O221	O22	0.493160	0.612600	0.020040
O231	O23	0.612600	0.493160	0.874200
O241	O24	0.020040	0.874200	0.493160
O251	O25	0.020040	0.612600	0.493160
O261	O26	0.612600	0.020040	0.874200
O271	O27	0.493160	0.874200	0.020040
O281	O28	0.874200	0.493160	0.612600
O291	O29	0.020040	0.493160	0.874200
O301	O30	0.612600	0.874200	0.493160
O311	O31	0.493160	0.020040	0.612600
O321	O32	0.874200	0.612600	0.020040
O331	O33	0.020040	0.874200	0.612600
O341	O34	0.612600	0.493160	0.020040
O351	O35	0.493160	0.612600	0.874200
O361	O36	0.874200	0.020040	0.493160
O371	O37	0.387400	0.979960	0.506840
O381	O38	0.979960	0.387400	0.125800
O391	O39	0.125800	0.506840	0.979960
O401	O40	0.506840	0.125800	0.387400
O411	O41	0.506840	0.979960	0.125800
O421	O42	0.125800	0.387400	0.506840
O431	O43	0.979960	0.506840	0.387400
O441	O44	0.387400	0.125800	0.979960
O451	O45	0.125800	0.979960	0.387400
O461	O46	0.506840	0.387400	0.979960
O471	O47	0.387400	0.506840	0.125800
O481	O48	0.979960	0.125800	0.506840
