data_XAMDUM05_clean_PM
_symmetry_space_group_name_H-M	'P1'
_cell_length_a	18.513700
_cell_length_b	18.513700
_cell_length_c	18.513700
_cell_angle_alpha	60.000000
_cell_angle_beta	60.000000
_cell_angle_gamma	60.000000
_symmetry_Int_Tables_number 1

loop_
_symmetry_equiv_pos_as_xyz
'x,y,z'

loop_
_atom_site_label
_atom_site_type_symbol
_atom_site_fract_x
_atom_site_fract_y
_atom_site_fract_z
Cu11	Cu1	0.000000	0.429920	0.570080
Cu21	Cu2	0.429920	0.000000	0.000000
Cu31	Cu3	0.570080	0.000000	0.000000
Cu41	Cu4	0.000000	0.570080	0.429920
Cu51	Cu5	0.000000	0.570080	0.000000
Cu61	Cu6	0.429920	0.000000	0.570080
Cu71	Cu7	0.570080	0.000000	0.429920
Cu81	Cu8	0.000000	0.429920	0.000000
Cu91	Cu9	0.000000	0.000000	0.429920
Cu101	Cu10	0.429920	0.570080	0.000000
Cu111	Cu11	0.570080	0.429920	0.000000
Cu121	Cu12	0.000000	0.000000	0.570080
H11	H1	0.970300	0.271500	0.486700
H21	H2	0.271500	0.970300	0.271500
H31	H3	0.486700	0.271500	0.970300
H41	H4	0.271500	0.486700	0.271500
H51	H5	0.970300	0.486700	0.271500
H61	H6	0.271500	0.271500	0.486700
H71	H7	0.486700	0.970300	0.271500
H81	H8	0.271500	0.271500	0.970300
H91	H9	0.970300	0.271500	0.271500
H101	H10	0.271500	0.486700	0.970300
H111	H11	0.486700	0.271500	0.271500
H121	H12	0.271500	0.970300	0.486700
H131	H13	0.728500	0.029700	0.513300
H141	H14	0.029700	0.728500	0.728500
H151	H15	0.728500	0.513300	0.029700
H161	H16	0.513300	0.728500	0.728500
H171	H17	0.513300	0.029700	0.728500
H181	H18	0.728500	0.728500	0.513300
H191	H19	0.029700	0.513300	0.728500
H201	H20	0.728500	0.728500	0.029700
H211	H21	0.728500	0.029700	0.728500
H221	H22	0.513300	0.728500	0.029700
H231	H23	0.728500	0.513300	0.728500
H241	H24	0.029700	0.728500	0.513300
C11	C1	0.967600	0.302000	0.428400
C21	C2	0.302000	0.967600	0.302000
C31	C3	0.428400	0.302000	0.967600
C41	C4	0.302000	0.428400	0.302000
C51	C5	0.967600	0.428400	0.302000
C61	C6	0.302000	0.302000	0.428400
C71	C7	0.428400	0.967600	0.302000
C81	C8	0.302000	0.302000	0.967600
C91	C9	0.967600	0.302000	0.302000
C101	C10	0.302000	0.428400	0.967600
C111	C11	0.428400	0.302000	0.302000
C121	C12	0.302000	0.967600	0.428400
C131	C13	0.698000	0.032400	0.571600
C141	C14	0.032400	0.698000	0.698000
C151	C15	0.698000	0.571600	0.032400
C161	C16	0.571600	0.698000	0.698000
C171	C17	0.571600	0.032400	0.698000
C181	C18	0.698000	0.698000	0.571600
C191	C19	0.032400	0.571600	0.698000
C201	C20	0.698000	0.698000	0.032400
C211	C21	0.698000	0.032400	0.698000
C221	C22	0.571600	0.698000	0.032400
C231	C23	0.698000	0.571600	0.698000
C241	C24	0.032400	0.698000	0.571600
C251	C25	0.965200	0.389000	0.389000
C261	C26	0.977100	0.430500	0.430500
C271	C27	0.389000	0.965200	0.256800
C281	C28	0.430500	0.977100	0.161900
C291	C29	0.389000	0.256800	0.965200
C301	C30	0.430500	0.161900	0.977100
C311	C31	0.256800	0.389000	0.389000
C321	C32	0.161900	0.430500	0.430500
C331	C33	0.965200	0.389000	0.256800
C341	C34	0.977100	0.430500	0.161900
C351	C35	0.389000	0.256800	0.389000
C361	C36	0.430500	0.161900	0.430500
C371	C37	0.389000	0.965200	0.389000
C381	C38	0.430500	0.977100	0.430500
C391	C39	0.256800	0.389000	0.965200
C401	C40	0.161900	0.430500	0.977100
C411	C41	0.965200	0.256800	0.389000
C421	C42	0.977100	0.161900	0.430500
C431	C43	0.389000	0.389000	0.965200
C441	C44	0.430500	0.430500	0.977100
C451	C45	0.389000	0.389000	0.256800
C461	C46	0.430500	0.430500	0.161900
C471	C47	0.256800	0.965200	0.389000
C481	C48	0.161900	0.977100	0.430500
C491	C49	0.611000	0.034800	0.611000
C501	C50	0.569500	0.022900	0.569500
C511	C51	0.034800	0.611000	0.743200
C521	C52	0.022900	0.569500	0.838100
C531	C53	0.743200	0.611000	0.034800
C541	C54	0.838100	0.569500	0.022900
C551	C55	0.611000	0.743200	0.611000
C561	C56	0.569500	0.838100	0.569500
C571	C57	0.611000	0.034800	0.743200
C581	C58	0.569500	0.022900	0.838100
C591	C59	0.743200	0.611000	0.611000
C601	C60	0.838100	0.569500	0.569500
C611	C61	0.034800	0.611000	0.611000
C621	C62	0.022900	0.569500	0.569500
C631	C63	0.611000	0.743200	0.034800
C641	C64	0.569500	0.838100	0.022900
C651	C65	0.743200	0.034800	0.611000
C661	C66	0.838100	0.022900	0.569500
C671	C67	0.611000	0.611000	0.034800
C681	C68	0.569500	0.569500	0.022900
C691	C69	0.611000	0.611000	0.743200
C701	C70	0.569500	0.569500	0.838100
C711	C71	0.034800	0.743200	0.611000
C721	C72	0.022900	0.838100	0.569500
O11	O1	0.979100	0.387100	0.507500
O21	O2	0.387100	0.979100	0.126300
O31	O3	0.507500	0.126300	0.979100
O41	O4	0.126300	0.507500	0.387100
O51	O5	0.979100	0.507500	0.126300
O61	O6	0.387100	0.126300	0.507500
O71	O7	0.507500	0.979100	0.387100
O81	O8	0.126300	0.387100	0.979100
O91	O9	0.979100	0.126300	0.387100
O101	O10	0.387100	0.507500	0.979100
O111	O11	0.507500	0.387100	0.126300
O121	O12	0.126300	0.979100	0.507500
O131	O13	0.612900	0.020900	0.492500
O141	O14	0.020900	0.612900	0.873700
O151	O15	0.873700	0.492500	0.020900
O161	O16	0.492500	0.873700	0.612900
O171	O17	0.492500	0.020900	0.873700
O181	O18	0.873700	0.612900	0.492500
O191	O19	0.020900	0.492500	0.612900
O201	O20	0.612900	0.873700	0.020900
O211	O21	0.873700	0.020900	0.612900
O221	O22	0.492500	0.612900	0.020900
O231	O23	0.612900	0.492500	0.873700
O241	O24	0.020900	0.873700	0.492500
O251	O25	0.020900	0.612900	0.492500
O261	O26	0.612900	0.020900	0.873700
O271	O27	0.492500	0.873700	0.020900
O281	O28	0.873700	0.492500	0.612900
O291	O29	0.020900	0.492500	0.873700
O301	O30	0.612900	0.873700	0.492500
O311	O31	0.492500	0.020900	0.612900
O321	O32	0.873700	0.612900	0.020900
O331	O33	0.020900	0.873700	0.612900
O341	O34	0.612900	0.492500	0.020900
O351	O35	0.492500	0.612900	0.873700
O361	O36	0.873700	0.020900	0.492500
O371	O37	0.387100	0.979100	0.507500
O381	O38	0.979100	0.387100	0.126300
O391	O39	0.126300	0.507500	0.979100
O401	O40	0.507500	0.126300	0.387100
O411	O41	0.507500	0.979100	0.126300
O421	O42	0.126300	0.387100	0.507500
O431	O43	0.979100	0.507500	0.387100
O441	O44	0.387100	0.126300	0.979100
O451	O45	0.126300	0.979100	0.387100
O461	O46	0.507500	0.387100	0.979100
O471	O47	0.387100	0.507500	0.126300
O481	O48	0.979100	0.126300	0.507500
