data_XAMDUM04_clean_PM
_symmetry_space_group_name_H-M	'P1'
_cell_length_a	18.347100
_cell_length_b	18.347100
_cell_length_c	18.347100
_cell_angle_alpha	60.000000
_cell_angle_beta	60.000000
_cell_angle_gamma	60.000000
_symmetry_Int_Tables_number 1

loop_
_symmetry_equiv_pos_as_xyz
'x,y,z'

loop_
_atom_site_label
_atom_site_type_symbol
_atom_site_fract_x
_atom_site_fract_y
_atom_site_fract_z
Cu11	Cu1	0.000000	0.429200	0.570800
Cu21	Cu2	0.429200	0.000000	0.000000
Cu31	Cu3	0.570800	0.000000	0.000000
Cu41	Cu4	0.000000	0.570800	0.429200
Cu51	Cu5	0.000000	0.570800	0.000000
Cu61	Cu6	0.429200	0.000000	0.570800
Cu71	Cu7	0.570800	0.000000	0.429200
Cu81	Cu8	0.000000	0.429200	0.000000
Cu91	Cu9	0.000000	0.000000	0.429200
Cu101	Cu10	0.429200	0.570800	0.000000
Cu111	Cu11	0.570800	0.429200	0.000000
Cu121	Cu12	0.000000	0.000000	0.570800
H11	H1	0.964100	0.272500	0.490900
H21	H2	0.272500	0.964100	0.272500
H31	H3	0.490900	0.272500	0.964100
H41	H4	0.272500	0.490900	0.272500
H51	H5	0.964100	0.490900	0.272500
H61	H6	0.272500	0.272500	0.490900
H71	H7	0.490900	0.964100	0.272500
H81	H8	0.272500	0.272500	0.964100
H91	H9	0.964100	0.272500	0.272500
H101	H10	0.272500	0.490900	0.964100
H111	H11	0.490900	0.272500	0.272500
H121	H12	0.272500	0.964100	0.490900
H131	H13	0.727500	0.035900	0.509100
H141	H14	0.035900	0.727500	0.727500
H151	H15	0.727500	0.509100	0.035900
H161	H16	0.509100	0.727500	0.727500
H171	H17	0.509100	0.035900	0.727500
H181	H18	0.727500	0.727500	0.509100
H191	H19	0.035900	0.509100	0.727500
H201	H20	0.727500	0.727500	0.035900
H211	H21	0.727500	0.035900	0.727500
H221	H22	0.509100	0.727500	0.035900
H231	H23	0.727500	0.509100	0.727500
H241	H24	0.035900	0.727500	0.509100
C11	C1	0.963700	0.302500	0.431300
C21	C2	0.302500	0.963700	0.302500
C31	C3	0.431300	0.302500	0.963700
C41	C4	0.302500	0.431300	0.302500
C51	C5	0.963700	0.431300	0.302500
C61	C6	0.302500	0.302500	0.431300
C71	C7	0.431300	0.963700	0.302500
C81	C8	0.302500	0.302500	0.963700
C91	C9	0.963700	0.302500	0.302500
C101	C10	0.302500	0.431300	0.963700
C111	C11	0.431300	0.302500	0.302500
C121	C12	0.302500	0.963700	0.431300
C131	C13	0.697500	0.036300	0.568700
C141	C14	0.036300	0.697500	0.697500
C151	C15	0.697500	0.568700	0.036300
C161	C16	0.568700	0.697500	0.697500
C171	C17	0.568700	0.036300	0.697500
C181	C18	0.697500	0.697500	0.568700
C191	C19	0.036300	0.568700	0.697500
C201	C20	0.697500	0.697500	0.036300
C211	C21	0.697500	0.036300	0.697500
C221	C22	0.568700	0.697500	0.036300
C231	C23	0.697500	0.568700	0.697500
C241	C24	0.036300	0.697500	0.568700
C251	C25	0.962500	0.389100	0.389100
C261	C26	0.977400	0.430600	0.430600
C271	C27	0.389100	0.962500	0.259300
C281	C28	0.430600	0.977400	0.161400
C291	C29	0.389100	0.259300	0.962500
C301	C30	0.430600	0.161400	0.977400
C311	C31	0.259300	0.389100	0.389100
C321	C32	0.161400	0.430600	0.430600
C331	C33	0.962500	0.389100	0.259300
C341	C34	0.977400	0.430600	0.161400
C351	C35	0.389100	0.259300	0.389100
C361	C36	0.430600	0.161400	0.430600
C371	C37	0.389100	0.962500	0.389100
C381	C38	0.430600	0.977400	0.430600
C391	C39	0.259300	0.389100	0.962500
C401	C40	0.161400	0.430600	0.977400
C411	C41	0.962500	0.259300	0.389100
C421	C42	0.977400	0.161400	0.430600
C431	C43	0.389100	0.389100	0.962500
C441	C44	0.430600	0.430600	0.977400
C451	C45	0.389100	0.389100	0.259300
C461	C46	0.430600	0.430600	0.161400
C471	C47	0.259300	0.962500	0.389100
C481	C48	0.161400	0.977400	0.430600
C491	C49	0.610900	0.037500	0.610900
C501	C50	0.569400	0.022600	0.569400
C511	C51	0.037500	0.610900	0.740700
C521	C52	0.022600	0.569400	0.838600
C531	C53	0.740700	0.610900	0.037500
C541	C54	0.838600	0.569400	0.022600
C551	C55	0.610900	0.740700	0.610900
C561	C56	0.569400	0.838600	0.569400
C571	C57	0.610900	0.037500	0.740700
C581	C58	0.569400	0.022600	0.838600
C591	C59	0.740700	0.610900	0.610900
C601	C60	0.838600	0.569400	0.569400
C611	C61	0.037500	0.610900	0.610900
C621	C62	0.022600	0.569400	0.569400
C631	C63	0.610900	0.740700	0.037500
C641	C64	0.569400	0.838600	0.022600
C651	C65	0.740700	0.037500	0.610900
C661	C66	0.838600	0.022600	0.569400
C671	C67	0.610900	0.610900	0.037500
C681	C68	0.569400	0.569400	0.022600
C691	C69	0.610900	0.610900	0.740700
C701	C70	0.569400	0.569400	0.838600
C711	C71	0.037500	0.740700	0.610900
C721	C72	0.022600	0.838600	0.569400
O11	O1	0.979600	0.387200	0.509400
O21	O2	0.387200	0.979600	0.123800
O31	O3	0.509400	0.123800	0.979600
O41	O4	0.123800	0.509400	0.387200
O51	O5	0.979600	0.509400	0.123800
O61	O6	0.387200	0.123800	0.509400
O71	O7	0.509400	0.979600	0.387200
O81	O8	0.123800	0.387200	0.979600
O91	O9	0.979600	0.123800	0.387200
O101	O10	0.387200	0.509400	0.979600
O111	O11	0.509400	0.387200	0.123800
O121	O12	0.123800	0.979600	0.509400
O131	O13	0.612800	0.020400	0.490600
O141	O14	0.020400	0.612800	0.876200
O151	O15	0.876200	0.490600	0.020400
O161	O16	0.490600	0.876200	0.612800
O171	O17	0.490600	0.020400	0.876200
O181	O18	0.876200	0.612800	0.490600
O191	O19	0.020400	0.490600	0.612800
O201	O20	0.612800	0.876200	0.020400
O211	O21	0.876200	0.020400	0.612800
O221	O22	0.490600	0.612800	0.020400
O231	O23	0.612800	0.490600	0.876200
O241	O24	0.020400	0.876200	0.490600
O251	O25	0.020400	0.612800	0.490600
O261	O26	0.612800	0.020400	0.876200
O271	O27	0.490600	0.876200	0.020400
O281	O28	0.876200	0.490600	0.612800
O291	O29	0.020400	0.490600	0.876200
O301	O30	0.612800	0.876200	0.490600
O311	O31	0.490600	0.020400	0.612800
O321	O32	0.876200	0.612800	0.020400
O331	O33	0.020400	0.876200	0.612800
O341	O34	0.612800	0.490600	0.020400
O351	O35	0.490600	0.612800	0.876200
O361	O36	0.876200	0.020400	0.490600
O371	O37	0.387200	0.979600	0.509400
O381	O38	0.979600	0.387200	0.123800
O391	O39	0.123800	0.509400	0.979600
O401	O40	0.509400	0.123800	0.387200
O411	O41	0.509400	0.979600	0.123800
O421	O42	0.123800	0.387200	0.509400
O431	O43	0.979600	0.509400	0.387200
O441	O44	0.387200	0.123800	0.979600
O451	O45	0.123800	0.979600	0.387200
O461	O46	0.509400	0.387200	0.979600
O471	O47	0.387200	0.509400	0.123800
O481	O48	0.979600	0.123800	0.509400
