data_XAMDUM03_clean_PM
_symmetry_space_group_name_H-M	'P1'
_cell_length_a	18.566100
_cell_length_b	18.566100
_cell_length_c	18.566100
_cell_angle_alpha	60.000000
_cell_angle_beta	60.000000
_cell_angle_gamma	60.000000
_symmetry_Int_Tables_number 1

loop_
_symmetry_equiv_pos_as_xyz
'x,y,z'

loop_
_atom_site_label
_atom_site_type_symbol
_atom_site_fract_x
_atom_site_fract_y
_atom_site_fract_z
Cu11	Cu1	0.000000	0.430100	0.569900
Cu21	Cu2	0.430100	0.000000	0.000000
Cu31	Cu3	0.569900	0.000000	0.000000
Cu41	Cu4	0.000000	0.569900	0.430100
Cu51	Cu5	0.000000	0.569900	0.000000
Cu61	Cu6	0.430100	0.000000	0.569900
Cu71	Cu7	0.569900	0.000000	0.430100
Cu81	Cu8	0.000000	0.430100	0.000000
Cu91	Cu9	0.000000	0.000000	0.430100
Cu101	Cu10	0.430100	0.569900	0.000000
Cu111	Cu11	0.569900	0.430100	0.000000
Cu121	Cu12	0.000000	0.000000	0.569900
H11	H1	0.972200	0.270400	0.487000
H21	H2	0.270400	0.972200	0.270400
H31	H3	0.487000	0.270400	0.972200
H41	H4	0.270400	0.487000	0.270400
H51	H5	0.972200	0.487000	0.270400
H61	H6	0.270400	0.270400	0.487000
H71	H7	0.487000	0.972200	0.270400
H81	H8	0.270400	0.270400	0.972200
H91	H9	0.972200	0.270400	0.270400
H101	H10	0.270400	0.487000	0.972200
H111	H11	0.487000	0.270400	0.270400
H121	H12	0.270400	0.972200	0.487000
H131	H13	0.729600	0.027800	0.513000
H141	H14	0.027800	0.729600	0.729600
H151	H15	0.729600	0.513000	0.027800
H161	H16	0.513000	0.729600	0.729600
H171	H17	0.513000	0.027800	0.729600
H181	H18	0.729600	0.729600	0.513000
H191	H19	0.027800	0.513000	0.729600
H201	H20	0.729600	0.729600	0.027800
H211	H21	0.729600	0.027800	0.729600
H221	H22	0.513000	0.729600	0.027800
H231	H23	0.729600	0.513000	0.729600
H241	H24	0.027800	0.729600	0.513000
C11	C1	0.970400	0.300400	0.428800
C21	C2	0.300400	0.970400	0.300400
C31	C3	0.428800	0.300400	0.970400
C41	C4	0.300400	0.428800	0.300400
C51	C5	0.970400	0.428800	0.300400
C61	C6	0.300400	0.300400	0.428800
C71	C7	0.428800	0.970400	0.300400
C81	C8	0.300400	0.300400	0.970400
C91	C9	0.970400	0.300400	0.300400
C101	C10	0.300400	0.428800	0.970400
C111	C11	0.428800	0.300400	0.300400
C121	C12	0.300400	0.970400	0.428800
C131	C13	0.699600	0.029600	0.571200
C141	C14	0.029600	0.699600	0.699600
C151	C15	0.699600	0.571200	0.029600
C161	C16	0.571200	0.699600	0.699600
C171	C17	0.571200	0.029600	0.699600
C181	C18	0.699600	0.699600	0.571200
C191	C19	0.029600	0.571200	0.699600
C201	C20	0.699600	0.699600	0.029600
C211	C21	0.699600	0.029600	0.699600
C221	C22	0.571200	0.699600	0.029600
C231	C23	0.699600	0.571200	0.699600
C241	C24	0.029600	0.699600	0.571200
C251	C25	0.968520	0.387000	0.387000
C261	C26	0.978600	0.429600	0.429600
C271	C27	0.387000	0.968520	0.257480
C281	C28	0.429600	0.978600	0.162200
C291	C29	0.387000	0.257480	0.968520
C301	C30	0.429600	0.162200	0.978600
C311	C31	0.257480	0.387000	0.387000
C321	C32	0.162200	0.429600	0.429600
C331	C33	0.968520	0.387000	0.257480
C341	C34	0.978600	0.429600	0.162200
C351	C35	0.387000	0.257480	0.387000
C361	C36	0.429600	0.162200	0.429600
C371	C37	0.387000	0.968520	0.387000
C381	C38	0.429600	0.978600	0.429600
C391	C39	0.257480	0.387000	0.968520
C401	C40	0.162200	0.429600	0.978600
C411	C41	0.968520	0.257480	0.387000
C421	C42	0.978600	0.162200	0.429600
C431	C43	0.387000	0.387000	0.968520
C441	C44	0.429600	0.429600	0.978600
C451	C45	0.387000	0.387000	0.257480
C461	C46	0.429600	0.429600	0.162200
C471	C47	0.257480	0.968520	0.387000
C481	C48	0.162200	0.978600	0.429600
C491	C49	0.613000	0.031480	0.613000
C501	C50	0.570400	0.021400	0.570400
C511	C51	0.031480	0.613000	0.742520
C521	C52	0.021400	0.570400	0.837800
C531	C53	0.742520	0.613000	0.031480
C541	C54	0.837800	0.570400	0.021400
C551	C55	0.613000	0.742520	0.613000
C561	C56	0.570400	0.837800	0.570400
C571	C57	0.613000	0.031480	0.742520
C581	C58	0.570400	0.021400	0.837800
C591	C59	0.742520	0.613000	0.613000
C601	C60	0.837800	0.570400	0.570400
C611	C61	0.031480	0.613000	0.613000
C621	C62	0.021400	0.570400	0.570400
C631	C63	0.613000	0.742520	0.031480
C641	C64	0.570400	0.837800	0.021400
C651	C65	0.742520	0.031480	0.613000
C661	C66	0.837800	0.021400	0.570400
C671	C67	0.613000	0.613000	0.031480
C681	C68	0.570400	0.570400	0.021400
C691	C69	0.613000	0.613000	0.742520
C701	C70	0.570400	0.570400	0.837800
C711	C71	0.031480	0.742520	0.613000
C721	C72	0.021400	0.837800	0.570400
O11	O1	0.979980	0.387140	0.506640
O21	O2	0.387140	0.979980	0.126240
O31	O3	0.506640	0.126240	0.979980
O41	O4	0.126240	0.506640	0.387140
O51	O5	0.979980	0.506640	0.126240
O61	O6	0.387140	0.126240	0.506640
O71	O7	0.506640	0.979980	0.387140
O81	O8	0.126240	0.387140	0.979980
O91	O9	0.979980	0.126240	0.387140
O101	O10	0.387140	0.506640	0.979980
O111	O11	0.506640	0.387140	0.126240
O121	O12	0.126240	0.979980	0.506640
O131	O13	0.612860	0.020020	0.493360
O141	O14	0.020020	0.612860	0.873760
O151	O15	0.873760	0.493360	0.020020
O161	O16	0.493360	0.873760	0.612860
O171	O17	0.493360	0.020020	0.873760
O181	O18	0.873760	0.612860	0.493360
O191	O19	0.020020	0.493360	0.612860
O201	O20	0.612860	0.873760	0.020020
O211	O21	0.873760	0.020020	0.612860
O221	O22	0.493360	0.612860	0.020020
O231	O23	0.612860	0.493360	0.873760
O241	O24	0.020020	0.873760	0.493360
O251	O25	0.020020	0.612860	0.493360
O261	O26	0.612860	0.020020	0.873760
O271	O27	0.493360	0.873760	0.020020
O281	O28	0.873760	0.493360	0.612860
O291	O29	0.020020	0.493360	0.873760
O301	O30	0.612860	0.873760	0.493360
O311	O31	0.493360	0.020020	0.612860
O321	O32	0.873760	0.612860	0.020020
O331	O33	0.020020	0.873760	0.612860
O341	O34	0.612860	0.493360	0.020020
O351	O35	0.493360	0.612860	0.873760
O361	O36	0.873760	0.020020	0.493360
O371	O37	0.387140	0.979980	0.506640
O381	O38	0.979980	0.387140	0.126240
O391	O39	0.126240	0.506640	0.979980
O401	O40	0.506640	0.126240	0.387140
O411	O41	0.506640	0.979980	0.126240
O421	O42	0.126240	0.387140	0.506640
O431	O43	0.979980	0.506640	0.387140
O441	O44	0.387140	0.126240	0.979980
O451	O45	0.126240	0.979980	0.387140
O461	O46	0.506640	0.387140	0.979980
O471	O47	0.387140	0.506640	0.126240
O481	O48	0.979980	0.126240	0.506640
