data_XAMDUM06_clean_PM
_symmetry_space_group_name_H-M	'P1'
_cell_length_a	18.598000
_cell_length_b	18.598000
_cell_length_c	18.598000
_cell_angle_alpha	60.000000
_cell_angle_beta	60.000000
_cell_angle_gamma	60.000000
_symmetry_Int_Tables_number 1

loop_
_symmetry_equiv_pos_as_xyz
'x,y,z'

loop_
_atom_site_label
_atom_site_type_symbol
_atom_site_fract_x
_atom_site_fract_y
_atom_site_fract_z
Cu11	Cu1	0.570520	0.429480	0.000000
Cu21	Cu2	0.429480	0.570520	0.000000
Cu31	Cu3	0.000000	0.000000	0.570520
Cu41	Cu4	0.000000	0.000000	0.429480
Cu51	Cu5	0.570520	0.000000	0.000000
Cu61	Cu6	0.429480	0.000000	0.000000
Cu71	Cu7	0.000000	0.570520	0.429480
Cu81	Cu8	0.000000	0.429480	0.570520
Cu91	Cu9	0.570520	0.000000	0.429480
Cu101	Cu10	0.429480	0.000000	0.570520
Cu111	Cu11	0.000000	0.429480	0.000000
Cu121	Cu12	0.000000	0.570520	0.000000
H11	H1	0.271200	0.489400	0.968200
H21	H2	0.489400	0.271200	0.271200
H31	H3	0.968200	0.271200	0.271200
H41	H4	0.271200	0.968200	0.489400
H51	H5	0.271200	0.968200	0.271200
H61	H6	0.489400	0.271200	0.968200
H71	H7	0.968200	0.271200	0.489400
H81	H8	0.271200	0.489400	0.271200
H91	H9	0.271200	0.271200	0.489400
H101	H10	0.489400	0.968200	0.271200
H111	H11	0.968200	0.489400	0.271200
H121	H12	0.271200	0.271200	0.968200
H131	H13	0.510600	0.728800	0.031800
H141	H14	0.728800	0.510600	0.728800
H151	H15	0.728800	0.031800	0.728800
H161	H16	0.031800	0.728800	0.510600
H171	H17	0.031800	0.728800	0.728800
H181	H18	0.728800	0.510600	0.031800
H191	H19	0.728800	0.031800	0.510600
H201	H20	0.510600	0.728800	0.728800
H211	H21	0.728800	0.728800	0.510600
H221	H22	0.031800	0.510600	0.728800
H231	H23	0.510600	0.031800	0.728800
H241	H24	0.728800	0.728800	0.031800
C11	C1	0.300580	0.430280	0.968560
C21	C2	0.430280	0.300580	0.300580
C31	C3	0.968560	0.300580	0.300580
C41	C4	0.300580	0.968560	0.430280
C51	C5	0.300580	0.968560	0.300580
C61	C6	0.430280	0.300580	0.968560
C71	C7	0.968560	0.300580	0.430280
C81	C8	0.300580	0.430280	0.300580
C91	C9	0.300580	0.300580	0.430280
C101	C10	0.430280	0.968560	0.300580
C111	C11	0.968560	0.430280	0.300580
C121	C12	0.300580	0.300580	0.968560
C131	C13	0.569720	0.699420	0.031440
C141	C14	0.699420	0.569720	0.699420
C151	C15	0.699420	0.031440	0.699420
C161	C16	0.031440	0.699420	0.569720
C171	C17	0.031440	0.699420	0.699420
C181	C18	0.699420	0.569720	0.031440
C191	C19	0.699420	0.031440	0.569720
C201	C20	0.569720	0.699420	0.699420
C211	C21	0.699420	0.699420	0.569720
C221	C22	0.031440	0.569720	0.699420
C231	C23	0.569720	0.031440	0.699420
C241	C24	0.699420	0.699420	0.031440
C251	C25	0.386870	0.386870	0.968870
C261	C26	0.430990	0.430990	0.975990
C271	C27	0.386870	0.386870	0.257390
C281	C28	0.430990	0.430990	0.162030
C291	C29	0.968870	0.257390	0.386870
C301	C30	0.975990	0.162030	0.430990
C311	C31	0.257390	0.968870	0.386870
C321	C32	0.162030	0.975990	0.430990
C331	C33	0.386870	0.968870	0.257390
C341	C34	0.430990	0.975990	0.162030
C351	C35	0.386870	0.257390	0.968870
C361	C36	0.430990	0.162030	0.975990
C371	C37	0.968870	0.386870	0.386870
C381	C38	0.975990	0.430990	0.430990
C391	C39	0.257390	0.386870	0.386870
C401	C40	0.162030	0.430990	0.430990
C411	C41	0.386870	0.257390	0.386870
C421	C42	0.430990	0.162030	0.430990
C431	C43	0.386870	0.968870	0.386870
C441	C44	0.430990	0.975990	0.430990
C451	C45	0.968870	0.386870	0.257390
C461	C46	0.975990	0.430990	0.162030
C471	C47	0.257390	0.386870	0.968870
C481	C48	0.162030	0.430990	0.975990
C491	C49	0.613130	0.613130	0.031130
C501	C50	0.569010	0.569010	0.024010
C511	C51	0.613130	0.613130	0.742610
C521	C52	0.569010	0.569010	0.837970
C531	C53	0.742610	0.031130	0.613130
C541	C54	0.837970	0.024010	0.569010
C551	C55	0.031130	0.742610	0.613130
C561	C56	0.024010	0.837970	0.569010
C571	C57	0.031130	0.613130	0.742610
C581	C58	0.024010	0.569010	0.837970
C591	C59	0.742610	0.613130	0.031130
C601	C60	0.837970	0.569010	0.024010
C611	C61	0.613130	0.031130	0.613130
C621	C62	0.569010	0.024010	0.569010
C631	C63	0.613130	0.742610	0.613130
C641	C64	0.569010	0.837970	0.569010
C651	C65	0.742610	0.613130	0.613130
C661	C66	0.837970	0.569010	0.569010
C671	C67	0.031130	0.613130	0.613130
C681	C68	0.024010	0.569010	0.569010
C691	C69	0.613130	0.031130	0.742610
C701	C70	0.569010	0.024010	0.837970
C711	C71	0.613130	0.742610	0.031130
C721	C72	0.569010	0.837970	0.024010
O11	O1	0.507590	0.387590	0.978670
O21	O2	0.387590	0.507590	0.126150
O31	O3	0.978670	0.126150	0.507590
O41	O4	0.126150	0.978670	0.387590
O51	O5	0.507590	0.978670	0.126150
O61	O6	0.387590	0.126150	0.978670
O71	O7	0.978670	0.507590	0.387590
O81	O8	0.126150	0.387590	0.507590
O91	O9	0.507590	0.126150	0.387590
O101	O10	0.387590	0.978670	0.507590
O111	O11	0.978670	0.387590	0.126150
O121	O12	0.126150	0.507590	0.978670
O131	O13	0.612410	0.492410	0.021330
O141	O14	0.492410	0.612410	0.873850
O151	O15	0.873850	0.021330	0.492410
O161	O16	0.021330	0.873850	0.612410
O171	O17	0.021330	0.492410	0.873850
O181	O18	0.873850	0.612410	0.021330
O191	O19	0.492410	0.021330	0.612410
O201	O20	0.612410	0.873850	0.492410
O211	O21	0.873850	0.492410	0.612410
O221	O22	0.021330	0.612410	0.492410
O231	O23	0.612410	0.021330	0.873850
O241	O24	0.492410	0.873850	0.021330
O251	O25	0.492410	0.612410	0.021330
O261	O26	0.612410	0.492410	0.873850
O271	O27	0.021330	0.873850	0.492410
O281	O28	0.873850	0.021330	0.612410
O291	O29	0.492410	0.021330	0.873850
O301	O30	0.612410	0.873850	0.021330
O311	O31	0.021330	0.492410	0.612410
O321	O32	0.873850	0.612410	0.492410
O331	O33	0.492410	0.873850	0.612410
O341	O34	0.612410	0.021330	0.492410
O351	O35	0.021330	0.612410	0.873850
O361	O36	0.873850	0.492410	0.021330
O371	O37	0.387590	0.507590	0.978670
O381	O38	0.507590	0.387590	0.126150
O391	O39	0.126150	0.978670	0.507590
O401	O40	0.978670	0.126150	0.387590
O411	O41	0.978670	0.507590	0.126150
O421	O42	0.126150	0.387590	0.978670
O431	O43	0.507590	0.978670	0.387590
O441	O44	0.387590	0.126150	0.507590
O451	O45	0.126150	0.507590	0.387590
O461	O46	0.978670	0.387590	0.507590
O471	O47	0.387590	0.978670	0.126150
O481	O48	0.507590	0.126150	0.978670
