data_XAMDUM01_clean_PM
_symmetry_space_group_name_H-M	'P1'
_cell_length_a	18.602600
_cell_length_b	18.602600
_cell_length_c	18.602600
_cell_angle_alpha	60.000000
_cell_angle_beta	60.000000
_cell_angle_gamma	60.000000
_symmetry_Int_Tables_number 1

loop_
_symmetry_equiv_pos_as_xyz
'x,y,z'

loop_
_atom_site_label
_atom_site_type_symbol
_atom_site_fract_x
_atom_site_fract_y
_atom_site_fract_z
Cu11	Cu1	0.000000	0.429920	0.570080
Cu21	Cu2	0.429920	0.000000	0.000000
Cu31	Cu3	0.570080	0.000000	0.000000
Cu41	Cu4	0.000000	0.570080	0.429920
Cu51	Cu5	0.000000	0.570080	0.000000
Cu61	Cu6	0.429920	0.000000	0.570080
Cu71	Cu7	0.570080	0.000000	0.429920
Cu81	Cu8	0.000000	0.429920	0.000000
Cu91	Cu9	0.000000	0.000000	0.429920
Cu101	Cu10	0.429920	0.570080	0.000000
Cu111	Cu11	0.570080	0.429920	0.000000
Cu121	Cu12	0.000000	0.000000	0.570080
H11	H1	0.972800	0.270000	0.487200
H21	H2	0.270000	0.972800	0.270000
H31	H3	0.487200	0.270000	0.972800
H41	H4	0.270000	0.487200	0.270000
H51	H5	0.972800	0.487200	0.270000
H61	H6	0.270000	0.270000	0.487200
H71	H7	0.487200	0.972800	0.270000
H81	H8	0.270000	0.270000	0.972800
H91	H9	0.972800	0.270000	0.270000
H101	H10	0.270000	0.487200	0.972800
H111	H11	0.487200	0.270000	0.270000
H121	H12	0.270000	0.972800	0.487200
H131	H13	0.730000	0.027200	0.512800
H141	H14	0.027200	0.730000	0.730000
H151	H15	0.730000	0.512800	0.027200
H161	H16	0.512800	0.730000	0.730000
H171	H17	0.512800	0.027200	0.730000
H181	H18	0.730000	0.730000	0.512800
H191	H19	0.027200	0.512800	0.730000
H201	H20	0.730000	0.730000	0.027200
H211	H21	0.730000	0.027200	0.730000
H221	H22	0.512800	0.730000	0.027200
H231	H23	0.730000	0.512800	0.730000
H241	H24	0.027200	0.730000	0.512800
C11	C1	0.971180	0.300000	0.428820
C21	C2	0.300000	0.971180	0.300000
C31	C3	0.428820	0.300000	0.971180
C41	C4	0.300000	0.428820	0.300000
C51	C5	0.971180	0.428820	0.300000
C61	C6	0.300000	0.300000	0.428820
C71	C7	0.428820	0.971180	0.300000
C81	C8	0.300000	0.300000	0.971180
C91	C9	0.971180	0.300000	0.300000
C101	C10	0.300000	0.428820	0.971180
C111	C11	0.428820	0.300000	0.300000
C121	C12	0.300000	0.971180	0.428820
C131	C13	0.700000	0.028820	0.571180
C141	C14	0.028820	0.700000	0.700000
C151	C15	0.700000	0.571180	0.028820
C161	C16	0.571180	0.700000	0.700000
C171	C17	0.571180	0.028820	0.700000
C181	C18	0.700000	0.700000	0.571180
C191	C19	0.028820	0.571180	0.700000
C201	C20	0.700000	0.700000	0.028820
C211	C21	0.700000	0.028820	0.700000
C221	C22	0.571180	0.700000	0.028820
C231	C23	0.700000	0.571180	0.700000
C241	C24	0.028820	0.700000	0.571180
C251	C25	0.970480	0.386000	0.386000
C261	C26	0.977860	0.430100	0.430100
C271	C27	0.386000	0.970480	0.257520
C281	C28	0.430100	0.977860	0.161940
C291	C29	0.386000	0.257520	0.970480
C301	C30	0.430100	0.161940	0.977860
C311	C31	0.257520	0.386000	0.386000
C321	C32	0.161940	0.430100	0.430100
C331	C33	0.970480	0.386000	0.257520
C341	C34	0.977860	0.430100	0.161940
C351	C35	0.386000	0.257520	0.386000
C361	C36	0.430100	0.161940	0.430100
C371	C37	0.386000	0.970480	0.386000
C381	C38	0.430100	0.977860	0.430100
C391	C39	0.257520	0.386000	0.970480
C401	C40	0.161940	0.430100	0.977860
C411	C41	0.970480	0.257520	0.386000
C421	C42	0.977860	0.161940	0.430100
C431	C43	0.386000	0.386000	0.970480
C441	C44	0.430100	0.430100	0.977860
C451	C45	0.386000	0.386000	0.257520
C461	C46	0.430100	0.430100	0.161940
C471	C47	0.257520	0.970480	0.386000
C481	C48	0.161940	0.977860	0.430100
C491	C49	0.614000	0.029520	0.614000
C501	C50	0.569900	0.022140	0.569900
C511	C51	0.029520	0.614000	0.742480
C521	C52	0.022140	0.569900	0.838060
C531	C53	0.742480	0.614000	0.029520
C541	C54	0.838060	0.569900	0.022140
C551	C55	0.614000	0.742480	0.614000
C561	C56	0.569900	0.838060	0.569900
C571	C57	0.614000	0.029520	0.742480
C581	C58	0.569900	0.022140	0.838060
C591	C59	0.742480	0.614000	0.614000
C601	C60	0.838060	0.569900	0.569900
C611	C61	0.029520	0.614000	0.614000
C621	C62	0.022140	0.569900	0.569900
C631	C63	0.614000	0.742480	0.029520
C641	C64	0.569900	0.838060	0.022140
C651	C65	0.742480	0.029520	0.614000
C661	C66	0.838060	0.022140	0.569900
C671	C67	0.614000	0.614000	0.029520
C681	C68	0.569900	0.569900	0.022140
C691	C69	0.614000	0.614000	0.742480
C701	C70	0.569900	0.569900	0.838060
C711	C71	0.029520	0.742480	0.614000
C721	C72	0.022140	0.838060	0.569900
O11	O1	0.980120	0.387200	0.507120
O21	O2	0.387200	0.980120	0.125560
O31	O3	0.507120	0.125560	0.980120
O41	O4	0.125560	0.507120	0.387200
O51	O5	0.980120	0.507120	0.125560
O61	O6	0.387200	0.125560	0.507120
O71	O7	0.507120	0.980120	0.387200
O81	O8	0.125560	0.387200	0.980120
O91	O9	0.980120	0.125560	0.387200
O101	O10	0.387200	0.507120	0.980120
O111	O11	0.507120	0.387200	0.125560
O121	O12	0.125560	0.980120	0.507120
O131	O13	0.612800	0.019880	0.492880
O141	O14	0.019880	0.612800	0.874440
O151	O15	0.874440	0.492880	0.019880
O161	O16	0.492880	0.874440	0.612800
O171	O17	0.492880	0.019880	0.874440
O181	O18	0.874440	0.612800	0.492880
O191	O19	0.019880	0.492880	0.612800
O201	O20	0.612800	0.874440	0.019880
O211	O21	0.874440	0.019880	0.612800
O221	O22	0.492880	0.612800	0.019880
O231	O23	0.612800	0.492880	0.874440
O241	O24	0.019880	0.874440	0.492880
O251	O25	0.019880	0.612800	0.492880
O261	O26	0.612800	0.019880	0.874440
O271	O27	0.492880	0.874440	0.019880
O281	O28	0.874440	0.492880	0.612800
O291	O29	0.019880	0.492880	0.874440
O301	O30	0.612800	0.874440	0.492880
O311	O31	0.492880	0.019880	0.612800
O321	O32	0.874440	0.612800	0.019880
O331	O33	0.019880	0.874440	0.612800
O341	O34	0.612800	0.492880	0.019880
O351	O35	0.492880	0.612800	0.874440
O361	O36	0.874440	0.019880	0.492880
O371	O37	0.387200	0.980120	0.507120
O381	O38	0.980120	0.387200	0.125560
O391	O39	0.125560	0.507120	0.980120
O401	O40	0.507120	0.125560	0.387200
O411	O41	0.507120	0.980120	0.125560
O421	O42	0.125560	0.387200	0.507120
O431	O43	0.980120	0.507120	0.387200
O441	O44	0.387200	0.125560	0.980120
O451	O45	0.125560	0.980120	0.387200
O461	O46	0.507120	0.387200	0.980120
O471	O47	0.387200	0.507120	0.125560
O481	O48	0.980120	0.125560	0.507120
