data_XAMLUS_clean_PM
_symmetry_space_group_name_H-M	'P1'
_cell_length_a	8.921000
_cell_length_b	11.935000
_cell_length_c	13.274000
_cell_angle_alpha	90.000000
_cell_angle_beta	90.000000
_cell_angle_gamma	90.000000
_symmetry_Int_Tables_number 1

loop_
_symmetry_equiv_pos_as_xyz
'x,y,z'

loop_
_atom_site_label
_atom_site_type_symbol
_atom_site_fract_x
_atom_site_fract_y
_atom_site_fract_z
Ca11	Ca1	0.000000	0.761750	0.750000
Ca21	Ca2	0.500000	0.738250	0.250000
Ca31	Ca3	0.000000	0.238250	0.250000
Ca41	Ca4	0.500000	0.261750	0.750000
Ni11	Ni1	0.500000	0.500000	0.000000
Ni21	Ni2	0.000000	0.000000	0.500000
Ni31	Ni3	0.500000	0.500000	0.500000
Ni41	Ni4	0.000000	0.000000	0.000000
H11	H1	0.751000	0.782000	0.938000
H21	H2	0.601000	0.741000	0.895000
H31	H3	0.749000	0.718000	0.438000
H41	H4	0.899000	0.759000	0.395000
H51	H5	0.249000	0.782000	0.562000
H61	H6	0.399000	0.741000	0.605000
H71	H7	0.251000	0.718000	0.062000
H81	H8	0.101000	0.759000	0.105000
H91	H9	0.249000	0.218000	0.062000
H101	H10	0.399000	0.259000	0.105000
H111	H11	0.251000	0.282000	0.562000
H121	H12	0.101000	0.241000	0.605000
H131	H13	0.751000	0.218000	0.438000
H141	H14	0.601000	0.259000	0.395000
H151	H15	0.749000	0.282000	0.938000
H161	H16	0.899000	0.241000	0.895000
C11	C1	0.753100	0.617900	0.902700
C21	C2	0.684100	0.725600	0.942000
C31	C3	0.622100	0.722400	0.047800
C41	C4	0.746900	0.882100	0.402700
C51	C5	0.815900	0.774400	0.442000
C61	C6	0.877900	0.777600	0.547800
C71	C7	0.246900	0.617900	0.597300
C81	C8	0.315900	0.725600	0.558000
C91	C9	0.377900	0.722400	0.452200
C101	C10	0.253100	0.882100	0.097300
C111	C11	0.184100	0.774400	0.058000
C121	C12	0.122100	0.777600	0.952200
C131	C13	0.246900	0.382100	0.097300
C141	C14	0.315900	0.274400	0.058000
C151	C15	0.377900	0.277600	0.952200
C161	C16	0.253100	0.117900	0.597300
C171	C17	0.184100	0.225600	0.558000
C181	C18	0.122100	0.222400	0.452200
C191	C19	0.753100	0.382100	0.402700
C201	C20	0.684100	0.274400	0.442000
C211	C21	0.622100	0.277600	0.547800
C221	C22	0.746900	0.117900	0.902700
C231	C23	0.815900	0.225600	0.942000
C241	C24	0.877900	0.222400	0.047800
O11	O1	0.854500	0.626200	0.838600
O21	O2	0.707300	0.524200	0.934800
O31	O3	0.523000	0.649800	0.072200
O41	O4	0.836200	0.705800	0.610200
O51	O5	0.645500	0.873800	0.338600
O61	O6	0.792700	0.975800	0.434800
O71	O7	0.977000	0.850200	0.572200
O81	O8	0.663800	0.794200	0.110200
O91	O9	0.145500	0.626200	0.661400
O101	O10	0.292700	0.524200	0.565200
O111	O11	0.477000	0.649800	0.427800
O121	O12	0.163800	0.705800	0.889800
O131	O13	0.354500	0.873800	0.161400
O141	O14	0.207300	0.975800	0.065200
O151	O15	0.023000	0.850200	0.927800
O161	O16	0.336200	0.794200	0.389800
O171	O17	0.145500	0.373800	0.161400
O181	O18	0.292700	0.475800	0.065200
O191	O19	0.477000	0.350200	0.927800
O201	O20	0.163800	0.294200	0.389800
O211	O21	0.354500	0.126200	0.661400
O221	O22	0.207300	0.024200	0.565200
O231	O23	0.023000	0.149800	0.427800
O241	O24	0.336200	0.205800	0.889800
O251	O25	0.854500	0.373800	0.338600
O261	O26	0.707300	0.475800	0.434800
O271	O27	0.523000	0.350200	0.572200
O281	O28	0.836200	0.294200	0.110200
O291	O29	0.645500	0.126200	0.838600
O301	O30	0.792700	0.024200	0.934800
O311	O31	0.977000	0.149800	0.072200
O321	O32	0.663800	0.205800	0.610200
