data_XANLAA_clean_PM
_symmetry_space_group_name_H-M	'P1'
_cell_length_a	15.754000
_cell_length_b	26.877000
_cell_length_c	19.244000
_cell_angle_alpha	90.000000
_cell_angle_beta	90.065000
_cell_angle_gamma	90.000000
_symmetry_Int_Tables_number 1

loop_
_symmetry_equiv_pos_as_xyz
'x,y,z'

loop_
_atom_site_label
_atom_site_type_symbol
_atom_site_fract_x
_atom_site_fract_y
_atom_site_fract_z
Co11	Co1	0.045300	0.618690	0.786780
Co21	Co2	0.538500	0.863520	0.208240
S11	S1	0.322350	0.935350	0.058220
S21	S2	0.767620	0.778090	0.318640
S31	S3	0.283360	0.715890	0.710460
S41	S4	0.848110	0.563710	0.960090
C11	C1	0.204100	0.679260	0.724300
C21	C2	0.906100	0.576260	0.891500
C31	C3	0.397500	0.913290	0.109000
C41	C4	0.682900	0.806050	0.290300
N11	N1	0.144200	0.654410	0.734470
N21	N2	0.947100	0.585820	0.843460
N31	N3	0.450600	0.898230	0.144660
N41	N4	0.625300	0.826660	0.269240
N51	N5	0.630400	0.869250	0.125660
N61	N6	0.002810	0.691280	0.822360
N71	N7	0.918300	0.047040	0.756690
N81	N8	0.845250	0.828950	0.940750
N91	N9	0.815500	0.914040	0.920500
N101	N10	0.912700	0.871280	0.847350
C51	C5	0.676400	0.828930	0.108300
H11	H1	0.669700	0.799500	0.135100
C61	C6	0.732800	0.828040	0.053600
H21	H2	0.763500	0.798600	0.042800
C71	C7	0.744100	0.871180	0.014430
C81	C8	0.697500	0.913130	0.032070
H31	H3	0.704000	0.943100	0.006500
C91	C9	0.641000	0.910750	0.087600
H41	H4	0.608900	0.939500	0.099000
C101	C10	0.973100	0.698350	0.886560
H51	H5	0.974600	0.671100	0.917900
C111	C11	0.940300	0.743060	0.910140
H61	H6	0.919700	0.746200	0.956300
C121	C12	0.938200	0.783400	0.864310
C131	C13	0.971500	0.777180	0.798130
H71	H7	0.973100	0.804300	0.766500
C141	C14	0.002400	0.730710	0.778680
H81	H8	0.024000	0.726500	0.733000
C151	C15	0.970200	0.008150	0.751200
H91	H9	0.018600	0.011100	0.722200
C161	C16	0.957000	0.963190	0.786000
H101	H10	0.995400	0.936200	0.780300
C171	C17	0.887200	0.958710	0.828700
C181	C18	0.832300	0.999010	0.835000
H111	H11	0.783600	0.997000	0.863900
C191	C19	0.849900	0.041880	0.798400
H121	H12	0.812000	0.069200	0.802700
C201	C20	0.805100	0.871710	0.954950
C211	C21	0.896700	0.830710	0.885830
C221	C22	0.870900	0.911970	0.867900
N111	N11	0.127600	0.612960	0.875790
N121	N12	0.499900	0.789700	0.171740
N131	N13	0.427320	0.433260	0.240130
N141	N14	0.340400	0.651350	0.059770
N151	N15	0.407500	0.610010	0.153750
N161	N16	0.316300	0.564720	0.077990
C231	C23	0.172100	0.653440	0.895010
H131	H13	0.163900	0.683600	0.870100
C241	C24	0.229000	0.652830	0.949520
H141	H14	0.258600	0.682200	0.962300
C251	C25	0.242700	0.608470	0.985690
C261	C26	0.197700	0.566360	0.965380
H151	H15	0.206000	0.535400	0.988300
C271	C27	0.140800	0.570530	0.911350
H161	H16	0.109200	0.541900	0.898400
C281	C28	0.469300	0.782040	0.108020
H171	H17	0.471100	0.808700	0.075600
C291	C29	0.434900	0.736820	0.086950
H181	H18	0.413600	0.732700	0.041100
C301	C30	0.432400	0.697910	0.134300
C311	C31	0.465400	0.705260	0.199800
H191	H19	0.465500	0.679100	0.233000
C321	C32	0.498100	0.751320	0.216200
H201	H20	0.520700	0.756200	0.261500
C331	C33	0.460000	0.476930	0.260500
H211	H21	0.497200	0.477200	0.299300
C341	C34	0.442400	0.521450	0.227900
H221	H22	0.466700	0.551600	0.244400
C351	C35	0.388300	0.521480	0.170510
C361	C36	0.353600	0.476840	0.150120
H231	H23	0.315600	0.475500	0.111800
C371	C37	0.374700	0.433940	0.186090
H241	H24	0.350300	0.403400	0.171400
C381	C38	0.302800	0.607600	0.044310
C391	C39	0.391600	0.649910	0.114690
C401	C40	0.369700	0.568420	0.132160
Co31	Co3	0.954700	0.118690	0.713220
Co41	Co4	0.461500	0.363520	0.291760
S51	S5	0.677650	0.435350	0.441780
S61	S6	0.232380	0.278090	0.181360
S71	S7	0.716640	0.215890	0.789540
S81	S8	0.151890	0.063710	0.539910
C411	C41	0.795900	0.179260	0.775700
C421	C42	0.093900	0.076260	0.608500
C431	C43	0.602500	0.413290	0.391000
C441	C44	0.317100	0.306050	0.209700
N171	N17	0.855800	0.154410	0.765530
N181	N18	0.052900	0.085820	0.656540
N191	N19	0.549400	0.398230	0.355340
N201	N20	0.374700	0.326660	0.230760
N211	N21	0.369600	0.369250	0.374340
N221	N22	0.997190	0.191280	0.677640
N231	N23	0.081700	0.547040	0.743310
N241	N24	0.154750	0.328950	0.559250
N251	N25	0.184500	0.414040	0.579500
N261	N26	0.087300	0.371280	0.652650
C451	C45	0.323600	0.328930	0.391700
H251	H25	0.330300	0.299500	0.364900
C461	C46	0.267200	0.328040	0.446400
H261	H26	0.236500	0.298600	0.457200
C471	C47	0.255900	0.371180	0.485570
C481	C48	0.302500	0.413130	0.467930
H271	H27	0.296000	0.443100	0.493500
C491	C49	0.359000	0.410750	0.412400
H281	H28	0.391100	0.439500	0.401000
C501	C50	0.026900	0.198350	0.613440
H291	H29	0.025400	0.171100	0.582100
C511	C51	0.059700	0.243060	0.589860
H301	H30	0.080300	0.246200	0.543700
C521	C52	0.061800	0.283400	0.635690
C531	C53	0.028500	0.277180	0.701870
H311	H31	0.026900	0.304300	0.733500
C541	C54	0.997600	0.230710	0.721320
H321	H32	0.976000	0.226500	0.767000
C551	C55	0.029800	0.508150	0.748800
H331	H33	0.981400	0.511100	0.777800
C561	C56	0.043000	0.463190	0.714000
H341	H34	0.004600	0.436200	0.719700
C571	C57	0.112800	0.458710	0.671300
C581	C58	0.167700	0.499010	0.665000
H351	H35	0.216400	0.497000	0.636100
C591	C59	0.150100	0.541880	0.701600
H361	H36	0.188000	0.569200	0.697300
C601	C60	0.194900	0.371710	0.545050
C611	C61	0.103300	0.330710	0.614170
C621	C62	0.129100	0.411970	0.632100
N271	N27	0.872400	0.112960	0.624210
N281	N28	0.500100	0.289700	0.328260
N291	N29	0.572680	0.933260	0.259870
N301	N30	0.659600	0.151350	0.440230
N311	N31	0.592500	0.110010	0.346250
N321	N32	0.683700	0.064720	0.422010
C631	C63	0.827900	0.153440	0.604990
H371	H37	0.836100	0.183600	0.629900
C641	C64	0.771000	0.152830	0.550480
H381	H38	0.741400	0.182200	0.537700
C651	C65	0.757300	0.108470	0.514310
C661	C66	0.802300	0.066360	0.534620
H391	H39	0.794000	0.035400	0.511700
C671	C67	0.859200	0.070530	0.588650
H401	H40	0.890800	0.041900	0.601600
C681	C68	0.530700	0.282040	0.391980
H411	H41	0.528900	0.308700	0.424400
C691	C69	0.565100	0.236820	0.413050
H421	H42	0.586400	0.232700	0.458900
C701	C70	0.567600	0.197910	0.365700
C711	C71	0.534600	0.205260	0.300200
H431	H43	0.534500	0.179100	0.267000
C721	C72	0.501900	0.251320	0.283800
H441	H44	0.479300	0.256200	0.238500
C731	C73	0.540000	0.976930	0.239500
H451	H45	0.502800	0.977200	0.200700
C741	C74	0.557600	0.021450	0.272100
H461	H46	0.533300	0.051600	0.255600
C751	C75	0.611700	0.021480	0.329490
C761	C76	0.646400	0.976840	0.349880
H471	H47	0.684400	0.975500	0.388200
C771	C77	0.625300	0.933940	0.313910
H481	H48	0.649700	0.903400	0.328600
C781	C78	0.697200	0.107600	0.455690
C791	C79	0.608400	0.149910	0.385310
C801	C80	0.630300	0.068420	0.367840
Co51	Co5	0.954700	0.381310	0.213220
Co61	Co6	0.461500	0.136480	0.791760
S91	S9	0.677650	0.064650	0.941780
S101	S10	0.232380	0.221910	0.681360
S111	S11	0.716640	0.284110	0.289540
S121	S12	0.151890	0.436290	0.039910
C811	C81	0.795900	0.320740	0.275700
C821	C82	0.093900	0.423740	0.108500
C831	C83	0.602500	0.086710	0.891000
C841	C84	0.317100	0.193950	0.709700
N331	N33	0.855800	0.345590	0.265530
N341	N34	0.052900	0.414180	0.156540
N351	N35	0.549400	0.101770	0.855340
N361	N36	0.374700	0.173340	0.730760
N371	N37	0.369600	0.130750	0.874340
N381	N38	0.997190	0.308720	0.177640
N391	N39	0.081700	0.952960	0.243310
N401	N40	0.154750	0.171050	0.059250
N411	N41	0.184500	0.085960	0.079500
N421	N42	0.087300	0.128720	0.152650
C851	C85	0.323600	0.171070	0.891700
H491	H49	0.330300	0.200500	0.864900
C861	C86	0.267200	0.171960	0.946400
H501	H50	0.236500	0.201400	0.957200
C871	C87	0.255900	0.128820	0.985570
C881	C88	0.302500	0.086870	0.967930
H511	H51	0.296000	0.056900	0.993500
C891	C89	0.359000	0.089250	0.912400
H521	H52	0.391100	0.060500	0.901000
C901	C90	0.026900	0.301650	0.113440
H531	H53	0.025400	0.328900	0.082100
C911	C91	0.059700	0.256940	0.089860
H541	H54	0.080300	0.253800	0.043700
C921	C92	0.061800	0.216600	0.135690
C931	C93	0.028500	0.222820	0.201870
H551	H55	0.026900	0.195700	0.233500
C941	C94	0.997600	0.269290	0.221320
H561	H56	0.976000	0.273500	0.267000
C951	C95	0.029800	0.991850	0.248800
H571	H57	0.981400	0.988900	0.277800
C961	C96	0.043000	0.036810	0.214000
H581	H58	0.004600	0.063800	0.219700
C971	C97	0.112800	0.041290	0.171300
C981	C98	0.167700	0.000990	0.165000
H591	H59	0.216400	0.003000	0.136100
C991	C99	0.150100	0.958120	0.201600
H601	H60	0.188000	0.930800	0.197300
C1001	C100	0.194900	0.128290	0.045050
C1011	C101	0.103300	0.169290	0.114170
C1021	C102	0.129100	0.088030	0.132100
N431	N43	0.872400	0.387040	0.124210
N441	N44	0.500100	0.210300	0.828260
N451	N45	0.572680	0.566740	0.759870
N461	N46	0.659600	0.348650	0.940230
N471	N47	0.592500	0.389990	0.846250
N481	N48	0.683700	0.435280	0.922010
C1031	C103	0.827900	0.346560	0.104990
H611	H61	0.836100	0.316400	0.129900
C1041	C104	0.771000	0.347170	0.050480
H621	H62	0.741400	0.317800	0.037700
C1051	C105	0.757300	0.391530	0.014310
C1061	C106	0.802300	0.433640	0.034620
H631	H63	0.794000	0.464600	0.011700
C1071	C107	0.859200	0.429470	0.088650
H641	H64	0.890800	0.458100	0.101600
C1081	C108	0.530700	0.217960	0.891980
H651	H65	0.528900	0.191300	0.924400
C1091	C109	0.565100	0.263180	0.913050
H661	H66	0.586400	0.267300	0.958900
C1101	C110	0.567600	0.302090	0.865700
C1111	C111	0.534600	0.294740	0.800200
H671	H67	0.534500	0.320900	0.767000
C1121	C112	0.501900	0.248680	0.783800
H681	H68	0.479300	0.243800	0.738500
C1131	C113	0.540000	0.523070	0.739500
H691	H69	0.502800	0.522800	0.700700
C1141	C114	0.557600	0.478550	0.772100
H701	H70	0.533300	0.448400	0.755600
C1151	C115	0.611700	0.478520	0.829490
C1161	C116	0.646400	0.523160	0.849880
H711	H71	0.684400	0.524500	0.888200
C1171	C117	0.625300	0.566060	0.813910
H721	H72	0.649700	0.596600	0.828600
C1181	C118	0.697200	0.392400	0.955690
C1191	C119	0.608400	0.350090	0.885310
C1201	C120	0.630300	0.431580	0.867840
Co71	Co7	0.045300	0.881310	0.286780
Co81	Co8	0.538500	0.636480	0.708240
S131	S13	0.322350	0.564650	0.558220
S141	S14	0.767620	0.721910	0.818640
S151	S15	0.283360	0.784110	0.210460
S161	S16	0.848110	0.936290	0.460090
C1211	C121	0.204100	0.820740	0.224300
C1221	C122	0.906100	0.923740	0.391500
C1231	C123	0.397500	0.586710	0.609000
C1241	C124	0.682900	0.693950	0.790300
N491	N49	0.144200	0.845590	0.234470
N501	N50	0.947100	0.914180	0.343460
N511	N51	0.450600	0.601770	0.644660
N521	N52	0.625300	0.673340	0.769240
N531	N53	0.630400	0.630750	0.625660
N541	N54	0.002810	0.808720	0.322360
N551	N55	0.918300	0.452960	0.256690
N561	N56	0.845250	0.671050	0.440750
N571	N57	0.815500	0.585960	0.420500
N581	N58	0.912700	0.628720	0.347350
C1251	C125	0.676400	0.671070	0.608300
H731	H73	0.669700	0.700500	0.635100
C1261	C126	0.732800	0.671960	0.553600
H741	H74	0.763500	0.701400	0.542800
C1271	C127	0.744100	0.628820	0.514430
C1281	C128	0.697500	0.586870	0.532070
H751	H75	0.704000	0.556900	0.506500
C1291	C129	0.641000	0.589250	0.587600
H761	H76	0.608900	0.560500	0.599000
C1301	C130	0.973100	0.801650	0.386560
H771	H77	0.974600	0.828900	0.417900
C1311	C131	0.940300	0.756940	0.410140
H781	H78	0.919700	0.753800	0.456300
C1321	C132	0.938200	0.716600	0.364310
C1331	C133	0.971500	0.722820	0.298130
H791	H79	0.973100	0.695700	0.266500
C1341	C134	0.002400	0.769290	0.278680
H801	H80	0.024000	0.773500	0.233000
C1351	C135	0.970200	0.491850	0.251200
H811	H81	0.018600	0.488900	0.222200
C1361	C136	0.957000	0.536810	0.286000
H821	H82	0.995400	0.563800	0.280300
C1371	C137	0.887200	0.541290	0.328700
C1381	C138	0.832300	0.500990	0.335000
H831	H83	0.783600	0.503000	0.363900
C1391	C139	0.849900	0.458120	0.298400
H841	H84	0.812000	0.430800	0.302700
C1401	C140	0.805100	0.628290	0.454950
C1411	C141	0.896700	0.669290	0.385830
C1421	C142	0.870900	0.588030	0.367900
N591	N59	0.127600	0.887040	0.375790
N601	N60	0.499900	0.710300	0.671740
N611	N61	0.427320	0.066740	0.740130
N621	N62	0.340400	0.848650	0.559770
N631	N63	0.407500	0.889990	0.653750
N641	N64	0.316300	0.935280	0.577990
C1431	C143	0.172100	0.846560	0.395010
H851	H85	0.163900	0.816400	0.370100
C1441	C144	0.229000	0.847170	0.449520
H861	H86	0.258600	0.817800	0.462300
C1451	C145	0.242700	0.891530	0.485690
C1461	C146	0.197700	0.933640	0.465380
H871	H87	0.206000	0.964600	0.488300
C1471	C147	0.140800	0.929470	0.411350
H881	H88	0.109200	0.958100	0.398400
C1481	C148	0.469300	0.717960	0.608020
H891	H89	0.471100	0.691300	0.575600
C1491	C149	0.434900	0.763180	0.586950
H901	H90	0.413600	0.767300	0.541100
C1501	C150	0.432400	0.802090	0.634300
C1511	C151	0.465400	0.794740	0.699800
H911	H91	0.465500	0.820900	0.733000
C1521	C152	0.498100	0.748680	0.716200
H921	H92	0.520700	0.743800	0.761500
C1531	C153	0.460000	0.023070	0.760500
H931	H93	0.497200	0.022800	0.799300
C1541	C154	0.442400	0.978550	0.727900
H941	H94	0.466700	0.948400	0.744400
C1551	C155	0.388300	0.978520	0.670510
C1561	C156	0.353600	0.023160	0.650120
H951	H95	0.315600	0.024500	0.611800
C1571	C157	0.374700	0.066060	0.686090
H961	H96	0.350300	0.096600	0.671400
C1581	C158	0.302800	0.892400	0.544310
C1591	C159	0.391600	0.850090	0.614690
C1601	C160	0.369700	0.931580	0.632160
