data_XANXUF_clean_PM
_symmetry_space_group_name_H-M	'P1'
_cell_length_a	10.626000
_cell_length_b	10.626000
_cell_length_c	25.718000
_cell_angle_alpha	90.000000
_cell_angle_beta	90.000000
_cell_angle_gamma	90.000000
_symmetry_Int_Tables_number 1

loop_
_symmetry_equiv_pos_as_xyz
'x,y,z'

loop_
_atom_site_label
_atom_site_type_symbol
_atom_site_fract_x
_atom_site_fract_y
_atom_site_fract_z
N11	N1	0.039500	0.088300	0.166800
C11	C1	0.133000	0.011300	0.154100
C21	C2	0.173700	0.911700	0.181100
C31	C3	0.118000	0.887100	0.228000
C41	C4	0.022000	0.966200	0.245400
C51	C5	0.982800	0.061800	0.213500
C61	C6	0.882200	0.143700	0.229000
C71	C7	0.797600	0.210400	0.242400
H11	H1	0.175500	0.028700	0.122500
H21	H2	0.239200	0.859600	0.168100
H31	H3	0.144600	0.817500	0.248400
H41	H4	0.984600	0.954100	0.278600
N21	N2	0.539500	0.588300	0.666800
C81	C8	0.633000	0.511300	0.654100
C91	C9	0.673700	0.411700	0.681100
C101	C10	0.618000	0.387100	0.728000
C111	C11	0.522000	0.466200	0.745400
C121	C12	0.482800	0.561800	0.713500
C131	C13	0.382200	0.643700	0.729000
C141	C14	0.297600	0.710400	0.742400
H51	H5	0.675500	0.528700	0.622500
H61	H6	0.739200	0.359600	0.668100
H71	H7	0.644600	0.317500	0.748400
H81	H8	0.484600	0.454100	0.778600
N31	N3	0.460500	0.911700	0.666800
C151	C15	0.367000	0.988700	0.654100
C161	C16	0.326300	0.088300	0.681100
C171	C17	0.382000	0.112900	0.728000
C181	C18	0.478000	0.033800	0.745400
C191	C19	0.517200	0.938200	0.713500
C201	C20	0.617800	0.856300	0.729000
C211	C21	0.702400	0.789600	0.742400
H91	H9	0.324500	0.971300	0.622500
H101	H10	0.260800	0.140400	0.668100
H111	H11	0.355400	0.182500	0.748400
H121	H12	0.515400	0.045900	0.778600
N41	N4	0.960500	0.411700	0.166800
C221	C22	0.867000	0.488700	0.154100
C231	C23	0.826300	0.588300	0.181100
C241	C24	0.882000	0.612900	0.228000
C251	C25	0.978000	0.533800	0.245400
C261	C26	0.017200	0.438200	0.213500
C271	C27	0.117800	0.356300	0.229000
C281	C28	0.202400	0.289600	0.242400
H131	H13	0.824500	0.471300	0.122500
H141	H14	0.760800	0.640400	0.168100
H151	H15	0.855400	0.682500	0.248400
H161	H16	0.015400	0.545900	0.278600
N51	N5	0.661700	0.289500	0.416800
C291	C29	0.738700	0.383000	0.404100
C301	C30	0.838300	0.423700	0.431100
C311	C31	0.862900	0.368000	0.478000
C321	C32	0.783800	0.272000	0.495400
C331	C33	0.688200	0.232800	0.463500
C341	C34	0.606300	0.132200	0.479000
C351	C35	0.539600	0.047600	0.492400
H171	H17	0.721300	0.425500	0.372500
H181	H18	0.890400	0.489200	0.418100
H191	H19	0.932500	0.394600	0.498400
H201	H20	0.795900	0.234600	0.528600
N61	N6	0.161700	0.789500	0.916800
C361	C36	0.238700	0.883000	0.904100
C371	C37	0.338300	0.923700	0.931100
C381	C38	0.362900	0.868000	0.978000
C391	C39	0.283800	0.772000	0.995400
C401	C40	0.188200	0.732800	0.963500
C411	C41	0.106300	0.632200	0.979000
C421	C42	0.039600	0.547600	0.992400
H211	H21	0.221300	0.925500	0.872500
H221	H22	0.390400	0.989200	0.918100
H231	H23	0.432500	0.894600	0.998400
H241	H24	0.295900	0.734600	0.028600
N71	N7	0.838300	0.710500	0.916800
C431	C43	0.761300	0.617000	0.904100
C441	C44	0.661700	0.576300	0.931100
C451	C45	0.637100	0.632000	0.978000
C461	C46	0.716200	0.728000	0.995400
C471	C47	0.811800	0.767200	0.963500
C481	C48	0.893700	0.867800	0.979000
C491	C49	0.960400	0.952400	0.992400
H251	H25	0.778700	0.574500	0.872500
H261	H26	0.609600	0.510800	0.918100
H271	H27	0.567500	0.605400	0.998400
H281	H28	0.704100	0.765400	0.028600
N81	N8	0.338300	0.210500	0.416800
C501	C50	0.261300	0.117000	0.404100
C511	C51	0.161700	0.076300	0.431100
C521	C52	0.137100	0.132000	0.478000
C531	C53	0.216200	0.228000	0.495400
C541	C54	0.311800	0.267200	0.463500
C551	C55	0.393700	0.367800	0.479000
C561	C56	0.460400	0.452400	0.492400
H291	H29	0.278700	0.074500	0.372500
H301	H30	0.109600	0.010800	0.418100
H311	H31	0.067500	0.105400	0.498400
H321	H32	0.204100	0.265400	0.528600
N91	N9	0.960500	0.911700	0.833200
C571	C57	0.867000	0.988700	0.845900
C581	C58	0.826300	0.088300	0.818900
C591	C59	0.882000	0.112900	0.772000
C601	C60	0.978000	0.033800	0.754600
C611	C61	0.017200	0.938200	0.786500
C621	C62	0.117800	0.856300	0.771000
C631	C63	0.202400	0.789600	0.757600
H331	H33	0.824500	0.971300	0.877500
H341	H34	0.760800	0.140400	0.831900
H351	H35	0.855400	0.182500	0.751600
H361	H36	0.015400	0.045900	0.721400
N101	N10	0.460500	0.411700	0.333200
C641	C64	0.367000	0.488700	0.345900
C651	C65	0.326300	0.588300	0.318900
C661	C66	0.382000	0.612900	0.272000
C671	C67	0.478000	0.533800	0.254600
C681	C68	0.517200	0.438200	0.286500
C691	C69	0.617800	0.356300	0.271000
C701	C70	0.702400	0.289600	0.257600
H371	H37	0.324500	0.471300	0.377500
H381	H38	0.260800	0.640400	0.331900
H391	H39	0.355400	0.682500	0.251600
H401	H40	0.515400	0.545900	0.221400
N111	N11	0.539500	0.088300	0.333200
C711	C71	0.633000	0.011300	0.345900
C721	C72	0.673700	0.911700	0.318900
C731	C73	0.618000	0.887100	0.272000
C741	C74	0.522000	0.966200	0.254600
C751	C75	0.482800	0.061800	0.286500
C761	C76	0.382200	0.143700	0.271000
C771	C77	0.297600	0.210400	0.257600
H411	H41	0.675500	0.028700	0.377500
H421	H42	0.739200	0.859600	0.331900
H431	H43	0.644600	0.817500	0.251600
H441	H44	0.484600	0.954100	0.221400
N121	N12	0.039500	0.588300	0.833200
C781	C78	0.133000	0.511300	0.845900
C791	C79	0.173700	0.411700	0.818900
C801	C80	0.118000	0.387100	0.772000
C811	C81	0.022000	0.466200	0.754600
C821	C82	0.982800	0.561800	0.786500
C831	C83	0.882200	0.643700	0.771000
C841	C84	0.797600	0.710400	0.757600
H451	H45	0.175500	0.528700	0.877500
H461	H46	0.239200	0.359600	0.831900
H471	H47	0.144600	0.317500	0.751600
H481	H48	0.984600	0.454100	0.721400
N131	N13	0.338300	0.710500	0.583200
C851	C85	0.261300	0.617000	0.595900
C861	C86	0.161700	0.576300	0.568900
C871	C87	0.137100	0.632000	0.522000
C881	C88	0.216200	0.728000	0.504600
C891	C89	0.311800	0.767200	0.536500
C901	C90	0.393700	0.867800	0.521000
C911	C91	0.460400	0.952400	0.507600
H491	H49	0.278700	0.574500	0.627500
H501	H50	0.109600	0.510800	0.581900
H511	H51	0.067500	0.605400	0.501600
H521	H52	0.204100	0.765400	0.471400
N141	N14	0.838300	0.210500	0.083200
C921	C92	0.761300	0.117000	0.095900
C931	C93	0.661700	0.076300	0.068900
C941	C94	0.637100	0.132000	0.022000
C951	C95	0.716200	0.228000	0.004600
C961	C96	0.811800	0.267200	0.036500
C971	C97	0.893700	0.367800	0.021000
C981	C98	0.960400	0.452400	0.007600
H531	H53	0.778700	0.074500	0.127500
H541	H54	0.609600	0.010800	0.081900
H551	H55	0.567500	0.105400	0.001600
H561	H56	0.704100	0.265400	0.971400
N151	N15	0.161700	0.289500	0.083200
C991	C99	0.238700	0.383000	0.095900
C1001	C100	0.338300	0.423700	0.068900
C1011	C101	0.362900	0.368000	0.022000
C1021	C102	0.283800	0.272000	0.004600
C1031	C103	0.188200	0.232800	0.036500
C1041	C104	0.106300	0.132200	0.021000
C1051	C105	0.039600	0.047600	0.007600
H571	H57	0.221300	0.425500	0.127500
H581	H58	0.390400	0.489200	0.081900
H591	H59	0.432500	0.394600	0.001600
H601	H60	0.295900	0.234600	0.971400
N161	N16	0.661700	0.789500	0.583200
C1061	C106	0.738700	0.883000	0.595900
C1071	C107	0.838300	0.923700	0.568900
C1081	C108	0.862900	0.868000	0.522000
C1091	C109	0.783800	0.772000	0.504600
C1101	C110	0.688200	0.732800	0.536500
C1111	C111	0.606300	0.632200	0.521000
C1121	C112	0.539600	0.547600	0.507600
H611	H61	0.721300	0.925500	0.627500
H621	H62	0.890400	0.989200	0.581900
H631	H63	0.932500	0.894600	0.501600
H641	H64	0.795900	0.734600	0.471400
Cu11	Cu1	0.500000	0.250000	0.375000
Cu21	Cu2	0.000000	0.750000	0.875000
Cu31	Cu3	0.500000	0.750000	0.625000
Cu41	Cu4	0.000000	0.250000	0.125000
