data_XAPCOJ06_clean_PM
_symmetry_space_group_name_H-M	'P1'
_cell_length_a	15.116500
_cell_length_b	15.116500
_cell_length_c	12.035500
_cell_angle_alpha	90.000000
_cell_angle_beta	90.000000
_cell_angle_gamma	90.000000
_symmetry_Int_Tables_number 1

loop_
_symmetry_equiv_pos_as_xyz
'x,y,z'

loop_
_atom_site_label
_atom_site_type_symbol
_atom_site_fract_x
_atom_site_fract_y
_atom_site_fract_z
O11	O1	0.601900	0.287900	0.757100
O21	O2	0.619100	0.379300	0.608700
C11	C1	0.593400	0.360900	0.707800
C21	C2	0.547600	0.436300	0.760500
C31	C3	0.547600	0.433300	0.879600
H11	H1	0.573180	0.381620	0.907350
O31	O3	0.101900	0.787900	0.257100
O41	O4	0.119100	0.879300	0.108700
C41	C4	0.093400	0.860900	0.207800
C51	C5	0.047600	0.936300	0.260500
C61	C6	0.047600	0.933300	0.379600
H21	H2	0.073180	0.881620	0.407350
O51	O5	0.898100	0.212100	0.257100
O61	O6	0.880900	0.120700	0.108700
C71	C7	0.906600	0.139100	0.207800
C81	C8	0.952400	0.063700	0.260500
C91	C9	0.952400	0.066700	0.379600
H31	H3	0.926820	0.118380	0.407350
O71	O7	0.398100	0.712100	0.757100
O81	O8	0.380900	0.620700	0.608700
C101	C10	0.406600	0.639100	0.707800
C111	C11	0.452400	0.563700	0.760500
C121	C12	0.452400	0.566700	0.879600
H41	H4	0.426820	0.618380	0.907350
O91	O9	0.712100	0.101900	0.007100
O101	O10	0.620700	0.119100	0.858700
C131	C13	0.639100	0.093400	0.957800
C141	C14	0.563700	0.047600	0.010500
C151	C15	0.566700	0.047600	0.129600
H51	H5	0.618380	0.073180	0.157350
O111	O11	0.212100	0.601900	0.507100
O121	O12	0.120700	0.619100	0.358700
C161	C16	0.139100	0.593400	0.457800
C171	C17	0.063700	0.547600	0.510500
C181	C18	0.066700	0.547600	0.629600
H61	H6	0.118380	0.573180	0.657350
O131	O13	0.787900	0.398100	0.507100
O141	O14	0.879300	0.380900	0.358700
C191	C19	0.860900	0.406600	0.457800
C201	C20	0.936300	0.452400	0.510500
C211	C21	0.933300	0.452400	0.629600
H71	H7	0.881620	0.426820	0.657350
O151	O15	0.287900	0.898100	0.007100
O161	O16	0.379300	0.880900	0.858700
C221	C22	0.360900	0.906600	0.957800
C231	C23	0.436300	0.952400	0.010500
C241	C24	0.433300	0.952400	0.129600
H81	H8	0.381620	0.926820	0.157350
O171	O17	0.898100	0.287900	0.992900
O181	O18	0.880900	0.379300	0.141300
C251	C25	0.906600	0.360900	0.042200
C261	C26	0.952400	0.436300	0.989500
C271	C27	0.952400	0.433300	0.870400
H91	H9	0.926820	0.381620	0.842650
O191	O19	0.398100	0.787900	0.492900
O201	O20	0.380900	0.879300	0.641300
C281	C28	0.406600	0.860900	0.542200
C291	C29	0.452400	0.936300	0.489500
C301	C30	0.452400	0.933300	0.370400
H101	H10	0.426820	0.881620	0.342650
O211	O21	0.601900	0.212100	0.492900
O221	O22	0.619100	0.120700	0.641300
C311	C31	0.593400	0.139100	0.542200
C321	C32	0.547600	0.063700	0.489500
C331	C33	0.547600	0.066700	0.370400
H111	H11	0.573180	0.118380	0.342650
O231	O23	0.101900	0.712100	0.992900
O241	O24	0.119100	0.620700	0.141300
C341	C34	0.093400	0.639100	0.042200
C351	C35	0.047600	0.563700	0.989500
C361	C36	0.047600	0.566700	0.870400
H121	H12	0.073180	0.618380	0.842650
O251	O25	0.787900	0.101900	0.742900
O261	O26	0.879300	0.119100	0.891300
C371	C37	0.860900	0.093400	0.792200
C381	C38	0.936300	0.047600	0.739500
C391	C39	0.933300	0.047600	0.620400
H131	H13	0.881620	0.073180	0.592650
O271	O27	0.287900	0.601900	0.242900
O281	O28	0.379300	0.619100	0.391300
C401	C40	0.360900	0.593400	0.292200
C411	C41	0.436300	0.547600	0.239500
C421	C42	0.433300	0.547600	0.120400
H141	H14	0.381620	0.573180	0.092650
O291	O29	0.712100	0.398100	0.242900
O301	O30	0.620700	0.380900	0.391300
C431	C43	0.639100	0.406600	0.292200
C441	C44	0.563700	0.452400	0.239500
C451	C45	0.566700	0.452400	0.120400
H151	H15	0.618380	0.426820	0.092650
O311	O31	0.212100	0.898100	0.742900
O321	O32	0.120700	0.880900	0.891300
C461	C46	0.139100	0.906600	0.792200
C471	C47	0.063700	0.952400	0.739500
C481	C48	0.066700	0.952400	0.620400
H161	H16	0.118380	0.926820	0.592650
V11	V1	0.691020	0.308980	0.500000
V21	V2	0.191020	0.808980	0.000000
V31	V3	0.808980	0.191020	0.000000
V41	V4	0.308980	0.691020	0.500000
V51	V5	0.691020	0.191020	0.750000
V61	V6	0.191020	0.691020	0.250000
V71	V7	0.808980	0.308980	0.250000
V81	V8	0.308980	0.808980	0.750000
O331	O33	0.744400	0.250000	0.625000
H171	H17	0.806000	0.250000	0.625000
O341	O34	0.244400	0.750000	0.125000
H181	H18	0.306000	0.750000	0.125000
O351	O35	0.755600	0.250000	0.125000
H191	H19	0.694000	0.250000	0.125000
O361	O36	0.255600	0.750000	0.625000
H201	H20	0.194000	0.750000	0.625000
O371	O37	0.750000	0.244400	0.875000
H211	H21	0.750000	0.306000	0.875000
O381	O38	0.250000	0.744400	0.375000
H221	H22	0.250000	0.806000	0.375000
O391	O39	0.750000	0.255600	0.375000
H231	H23	0.750000	0.194000	0.375000
O401	O40	0.250000	0.755600	0.875000
H241	H24	0.250000	0.694000	0.875000
C491	C49	0.500000	0.500000	0.703700
C501	C50	0.500000	0.500000	0.936200
H251	H25	0.500000	0.500000	0.626000
C511	C51	0.000000	0.000000	0.203700
C521	C52	0.000000	0.000000	0.436200
H261	H26	0.000000	0.000000	0.126000
C531	C53	0.500000	0.000000	0.953700
C541	C54	0.500000	0.000000	0.186200
H271	H27	0.500000	0.000000	0.876000
C551	C55	0.000000	0.500000	0.453700
C561	C56	0.000000	0.500000	0.686200
H281	H28	0.000000	0.500000	0.376000
C571	C57	0.000000	0.500000	0.046300
C581	C58	0.000000	0.500000	0.813800
H291	H29	0.000000	0.500000	0.124000
C591	C59	0.500000	0.000000	0.546300
C601	C60	0.500000	0.000000	0.313800
H301	H30	0.500000	0.000000	0.624000
C611	C61	0.000000	0.000000	0.796300
C621	C62	0.000000	0.000000	0.563800
H311	H31	0.000000	0.000000	0.874000
C631	C63	0.500000	0.500000	0.296300
C641	C64	0.500000	0.500000	0.063800
H321	H32	0.500000	0.500000	0.374000
