data_XAPCOJ_clean_PM
_symmetry_space_group_name_H-M	'P1'
_cell_length_a	15.131800
_cell_length_b	15.131800
_cell_length_c	12.052300
_cell_angle_alpha	90.000000
_cell_angle_beta	90.000000
_cell_angle_gamma	90.000000
_symmetry_Int_Tables_number 1

loop_
_symmetry_equiv_pos_as_xyz
'x,y,z'

loop_
_atom_site_label
_atom_site_type_symbol
_atom_site_fract_x
_atom_site_fract_y
_atom_site_fract_z
O11	O1	0.601050	0.289810	0.758140
O21	O2	0.618650	0.379720	0.609100
C11	C1	0.593040	0.360250	0.701790
C21	C2	0.540000	0.430780	0.759900
C31	C3	0.541350	0.429570	0.879190
H11	H1	0.573180	0.381620	0.907350
O31	O3	0.101050	0.789810	0.258140
O41	O4	0.118650	0.879720	0.109100
C41	C4	0.093040	0.860250	0.201790
C51	C5	0.040000	0.930780	0.259900
C61	C6	0.041350	0.929570	0.379190
H21	H2	0.073180	0.881620	0.407350
O51	O5	0.898950	0.210190	0.258140
O61	O6	0.881350	0.120280	0.109100
C71	C7	0.906960	0.139750	0.201790
C81	C8	0.960000	0.069220	0.259900
C91	C9	0.958650	0.070430	0.379190
H31	H3	0.926820	0.118380	0.407350
O71	O7	0.398950	0.710190	0.758140
O81	O8	0.381350	0.620280	0.609100
C101	C10	0.406960	0.639750	0.701790
C111	C11	0.460000	0.569220	0.759900
C121	C12	0.458650	0.570430	0.879190
H41	H4	0.426820	0.618380	0.907350
O91	O9	0.710190	0.101050	0.008140
O101	O10	0.620280	0.118650	0.859100
C131	C13	0.639750	0.093040	0.951790
C141	C14	0.569220	0.040000	0.009900
C151	C15	0.570430	0.041350	0.129190
H51	H5	0.618380	0.073180	0.157350
O111	O11	0.210190	0.601050	0.508140
O121	O12	0.120280	0.618650	0.359100
C161	C16	0.139750	0.593040	0.451790
C171	C17	0.069220	0.540000	0.509900
C181	C18	0.070430	0.541350	0.629190
H61	H6	0.118380	0.573180	0.657350
O131	O13	0.789810	0.398950	0.508140
O141	O14	0.879720	0.381350	0.359100
C191	C19	0.860250	0.406960	0.451790
C201	C20	0.930780	0.460000	0.509900
C211	C21	0.929570	0.458650	0.629190
H71	H7	0.881620	0.426820	0.657350
O151	O15	0.289810	0.898950	0.008140
O161	O16	0.379720	0.881350	0.859100
C221	C22	0.360250	0.906960	0.951790
C231	C23	0.430780	0.960000	0.009900
C241	C24	0.429570	0.958650	0.129190
H81	H8	0.381620	0.926820	0.157350
O171	O17	0.898950	0.289810	0.991860
O181	O18	0.881350	0.379720	0.140900
C251	C25	0.906960	0.360250	0.048210
C261	C26	0.960000	0.430780	0.990100
C271	C27	0.958650	0.429570	0.870810
H91	H9	0.926820	0.381620	0.842650
O191	O19	0.398950	0.789810	0.491860
O201	O20	0.381350	0.879720	0.640900
C281	C28	0.406960	0.860250	0.548210
C291	C29	0.460000	0.930780	0.490100
C301	C30	0.458650	0.929570	0.370810
H101	H10	0.426820	0.881620	0.342650
O211	O21	0.601050	0.210190	0.491860
O221	O22	0.618650	0.120280	0.640900
C311	C31	0.593040	0.139750	0.548210
C321	C32	0.540000	0.069220	0.490100
C331	C33	0.541350	0.070430	0.370810
H111	H11	0.573180	0.118380	0.342650
O231	O23	0.101050	0.710190	0.991860
O241	O24	0.118650	0.620280	0.140900
C341	C34	0.093040	0.639750	0.048210
C351	C35	0.040000	0.569220	0.990100
C361	C36	0.041350	0.570430	0.870810
H121	H12	0.073180	0.618380	0.842650
O251	O25	0.789810	0.101050	0.741860
O261	O26	0.879720	0.118650	0.890900
C371	C37	0.860250	0.093040	0.798210
C381	C38	0.930780	0.040000	0.740100
C391	C39	0.929570	0.041350	0.620810
H131	H13	0.881620	0.073180	0.592650
O271	O27	0.289810	0.601050	0.241860
O281	O28	0.379720	0.618650	0.390900
C401	C40	0.360250	0.593040	0.298210
C411	C41	0.430780	0.540000	0.240100
C421	C42	0.429570	0.541350	0.120810
H141	H14	0.381620	0.573180	0.092650
O291	O29	0.710190	0.398950	0.241860
O301	O30	0.620280	0.381350	0.390900
C431	C43	0.639750	0.406960	0.298210
C441	C44	0.569220	0.460000	0.240100
C451	C45	0.570430	0.458650	0.120810
H151	H15	0.618380	0.426820	0.092650
O311	O31	0.210190	0.898950	0.741860
O321	O32	0.120280	0.881350	0.890900
C461	C46	0.139750	0.906960	0.798210
C471	C47	0.069220	0.960000	0.740100
C481	C48	0.070430	0.958650	0.620810
H161	H16	0.118380	0.926820	0.592650
V11	V1	0.690570	0.309430	0.500000
V21	V2	0.190570	0.809430	0.000000
V31	V3	0.809430	0.190570	0.000000
V41	V4	0.309430	0.690570	0.500000
V51	V5	0.690570	0.190570	0.750000
V61	V6	0.190570	0.690570	0.250000
V71	V7	0.809430	0.309430	0.250000
V81	V8	0.309430	0.809430	0.750000
O331	O33	0.748300	0.250000	0.625000
H171	H17	0.806000	0.250000	0.625000
O341	O34	0.248300	0.750000	0.125000
H181	H18	0.306000	0.750000	0.125000
O351	O35	0.751700	0.250000	0.125000
H191	H19	0.694000	0.250000	0.125000
O361	O36	0.251700	0.750000	0.625000
H201	H20	0.194000	0.750000	0.625000
O371	O37	0.750000	0.248300	0.875000
H211	H21	0.750000	0.306000	0.875000
O381	O38	0.250000	0.748300	0.375000
H221	H22	0.250000	0.806000	0.375000
O391	O39	0.750000	0.251700	0.375000
H231	H23	0.750000	0.194000	0.375000
O401	O40	0.250000	0.751700	0.875000
H241	H24	0.250000	0.694000	0.875000
C491	C49	0.500000	0.500000	0.703840
C501	C50	0.500000	0.500000	0.935880
H251	H25	0.500000	0.500000	0.626700
C511	C51	0.000000	0.000000	0.203840
C521	C52	0.000000	0.000000	0.435880
H261	H26	0.000000	0.000000	0.126700
C531	C53	0.500000	0.000000	0.953840
C541	C54	0.500000	0.000000	0.185880
H271	H27	0.500000	0.000000	0.876700
C551	C55	0.000000	0.500000	0.453840
C561	C56	0.000000	0.500000	0.685880
H281	H28	0.000000	0.500000	0.376700
C571	C57	0.000000	0.500000	0.046160
C581	C58	0.000000	0.500000	0.814120
H291	H29	0.000000	0.500000	0.123300
C591	C59	0.500000	0.000000	0.546160
C601	C60	0.500000	0.000000	0.314120
H301	H30	0.500000	0.000000	0.623300
C611	C61	0.000000	0.000000	0.796160
C621	C62	0.000000	0.000000	0.564120
H311	H31	0.000000	0.000000	0.873300
C631	C63	0.500000	0.500000	0.296160
C641	C64	0.500000	0.500000	0.064120
H321	H32	0.500000	0.500000	0.373300
