data_XAPCOH_clean_PM
_symmetry_space_group_name_H-M	'P1'
_cell_length_a	27.268000
_cell_length_b	13.699200
_cell_length_c	45.888000
_cell_angle_alpha	90.000000
_cell_angle_beta	90.000000
_cell_angle_gamma	90.000000
_symmetry_Int_Tables_number 1

loop_
_symmetry_equiv_pos_as_xyz
'x,y,z'

loop_
_atom_site_label
_atom_site_type_symbol
_atom_site_fract_x
_atom_site_fract_y
_atom_site_fract_z
C11	C1	0.052000	0.023900	0.527850
H11	H1	0.031400	0.055700	0.541600
C21	C2	0.068000	0.074800	0.504340
H21	H2	0.059300	0.141500	0.502100
C31	C3	0.097200	0.029800	0.483560
C41	C4	0.109100	0.931700	0.487520
H31	H3	0.128700	0.897800	0.473700
C51	C5	0.091600	0.885700	0.512070
H41	H4	0.099500	0.818700	0.514800
C61	C6	0.113900	0.082400	0.456950
C71	C7	0.113900	0.218700	0.429610
C81	C8	0.148100	0.080700	0.412720
C91	C9	0.098100	0.321300	0.424580
C101	C10	0.088600	0.381900	0.447700
H51	H5	0.093900	0.359800	0.467100
C111	C11	0.071000	0.476300	0.442620
H61	H6	0.065500	0.518400	0.458700
C121	C12	0.072000	0.449200	0.393600
H71	H7	0.066800	0.473200	0.374400
C131	C13	0.089500	0.355700	0.396840
H81	H8	0.095500	0.315700	0.380300
C141	C14	0.170800	0.026500	0.388390
C151	C15	0.192500	0.073800	0.365450
H91	H9	0.193400	0.143100	0.364800
C161	C16	0.213100	0.019400	0.343170
H101	H10	0.228200	0.052600	0.327400
C171	C17	0.190800	0.875800	0.365500
H111	H11	0.189800	0.806400	0.365600
C181	C18	0.170000	0.925400	0.388360
H121	H12	0.155300	0.890800	0.404000
C191	C19	0.305600	0.069000	0.761700
H131	H13	0.333500	0.088800	0.772600
C201	C20	0.312800	0.033000	0.733470
H141	H14	0.344800	0.028200	0.725400
C211	C21	0.272100	0.004700	0.717800
C221	C22	0.225700	0.008100	0.730930
H151	H15	0.197300	0.986500	0.720800
C231	C23	0.222600	0.043600	0.758790
H161	H16	0.191300	0.045000	0.767900
C241	C24	0.277400	0.974300	0.686580
C251	C25	0.323600	0.940600	0.647920
C261	C26	0.241600	0.938700	0.643880
C271	C27	0.372400	0.928800	0.634590
C281	C28	0.414700	0.929600	0.651170
H171	H17	0.412700	0.942200	0.671500
C291	C29	0.459400	0.912200	0.638520
H181	H18	0.487800	0.911600	0.650500
C301	C30	0.424100	0.898700	0.593140
H191	H19	0.427400	0.889600	0.572700
C311	C31	0.377900	0.914400	0.604830
H201	H20	0.350000	0.915300	0.592400
C321	C32	0.196500	0.923600	0.626350
C331	C33	0.198700	0.896800	0.597440
H211	H21	0.229600	0.889200	0.588200
C341	C34	0.156400	0.881100	0.582000
H221	H22	0.158700	0.862100	0.562100
C351	C35	0.109600	0.919200	0.622260
H231	H23	0.078300	0.928300	0.631000
C361	C36	0.150500	0.934700	0.638880
H241	H24	0.147500	0.952900	0.658800
I11	I1	0.981930	0.958650	0.597310
I21	I2	0.047430	0.676980	0.563540
I31	I3	0.194450	0.688380	0.303580
I41	I4	0.337530	0.827230	0.322240
I51	I5	0.077660	0.725260	0.367670
I61	I6	0.016640	0.723640	0.457710
N11	N1	0.064100	0.929900	0.532400
N21	N2	0.102500	0.178300	0.455220
N31	N3	0.136600	0.173400	0.407560
N41	N4	0.137700	0.030500	0.437070
N51	N5	0.062100	0.508300	0.416150
N61	N6	0.212500	0.920900	0.343030
N71	N7	0.261700	0.076600	0.773900
N81	N8	0.322200	0.965500	0.676060
N91	N9	0.284600	0.927700	0.630650
N101	N10	0.235400	0.961200	0.671840
N111	N11	0.464300	0.896100	0.609890
N121	N12	0.111500	0.891600	0.594020
Zn11	Zn1	0.048070	0.860790	0.571400
Zn21	Zn2	0.246410	0.841810	0.311080
Zn31	Zn3	0.031160	0.642660	0.408520
C371	C37	0.448000	0.976100	0.027850
H251	H25	0.468600	0.944300	0.041600
C381	C38	0.432000	0.925200	0.004340
H261	H26	0.440700	0.858500	0.002100
C391	C39	0.402800	0.970200	0.983560
C401	C40	0.390900	0.068300	0.987520
H271	H27	0.371300	0.102200	0.973700
C411	C41	0.408400	0.114300	0.012070
H281	H28	0.400500	0.181300	0.014800
C421	C42	0.386100	0.917600	0.956950
C431	C43	0.386100	0.781300	0.929610
C441	C44	0.351900	0.919300	0.912720
C451	C45	0.401900	0.678700	0.924580
C461	C46	0.411400	0.618100	0.947700
H291	H29	0.406100	0.640200	0.967100
C471	C47	0.429000	0.523700	0.942620
H301	H30	0.434500	0.481600	0.958700
C481	C48	0.428000	0.550800	0.893600
H311	H31	0.433200	0.526800	0.874400
C491	C49	0.410500	0.644300	0.896840
H321	H32	0.404500	0.684300	0.880300
C501	C50	0.329200	0.973500	0.888390
C511	C51	0.307500	0.926200	0.865450
H331	H33	0.306600	0.856900	0.864800
C521	C52	0.286900	0.980600	0.843170
H341	H34	0.271800	0.947400	0.827400
C531	C53	0.309200	0.124200	0.865500
H351	H35	0.310200	0.193600	0.865600
C541	C54	0.330000	0.074600	0.888360
H361	H36	0.344700	0.109200	0.904000
C551	C55	0.194400	0.931000	0.261700
H371	H37	0.166500	0.911200	0.272600
C561	C56	0.187200	0.967000	0.233470
H381	H38	0.155200	0.971800	0.225400
C571	C57	0.227900	0.995300	0.217800
C581	C58	0.274300	0.991900	0.230930
H391	H39	0.302700	0.013500	0.220800
C591	C59	0.277400	0.956400	0.258790
H401	H40	0.308700	0.955000	0.267900
C601	C60	0.222600	0.025700	0.186580
C611	C61	0.176400	0.059400	0.147920
C621	C62	0.258400	0.061300	0.143880
C631	C63	0.127600	0.071200	0.134590
C641	C64	0.085300	0.070400	0.151170
H411	H41	0.087300	0.057800	0.171500
C651	C65	0.040600	0.087800	0.138520
H421	H42	0.012200	0.088400	0.150500
C661	C66	0.075900	0.101300	0.093140
H431	H43	0.072600	0.110400	0.072700
C671	C67	0.122100	0.085600	0.104830
H441	H44	0.150000	0.084700	0.092400
C681	C68	0.303500	0.076400	0.126350
C691	C69	0.301300	0.103200	0.097440
H451	H45	0.270400	0.110800	0.088200
C701	C70	0.343600	0.118900	0.082000
H461	H46	0.341300	0.137900	0.062100
C711	C71	0.390400	0.080800	0.122260
H471	H47	0.421700	0.071700	0.131000
C721	C72	0.349500	0.065300	0.138880
H481	H48	0.352500	0.047100	0.158800
I71	I7	0.518070	0.041350	0.097310
I81	I8	0.452570	0.323020	0.063540
I91	I9	0.305550	0.311620	0.803580
I101	I10	0.162470	0.172770	0.822240
I111	I11	0.422340	0.274740	0.867670
I121	I12	0.483360	0.276360	0.957710
N131	N13	0.435900	0.070100	0.032400
N141	N14	0.397500	0.821700	0.955220
N151	N15	0.363400	0.826600	0.907560
N161	N16	0.362300	0.969500	0.937070
N171	N17	0.437900	0.491700	0.916150
N181	N18	0.287500	0.079100	0.843030
N191	N19	0.238300	0.923400	0.273900
N201	N20	0.177800	0.034500	0.176060
N211	N21	0.215400	0.072300	0.130650
N221	N22	0.264600	0.038800	0.171840
N231	N23	0.035700	0.103900	0.109890
N241	N24	0.388500	0.108400	0.094020
Zn41	Zn4	0.451930	0.139210	0.071400
Zn51	Zn5	0.253590	0.158190	0.811080
Zn61	Zn6	0.468840	0.357340	0.908520
C731	C73	0.948000	0.523900	0.972150
H491	H49	0.968600	0.555700	0.958400
C741	C74	0.932000	0.574800	0.995660
H501	H50	0.940700	0.641500	0.997900
C751	C75	0.902800	0.529800	0.016440
C761	C76	0.890900	0.431700	0.012480
H511	H51	0.871300	0.397800	0.026300
C771	C77	0.908400	0.385700	0.987930
H521	H52	0.900500	0.318700	0.985200
C781	C78	0.886100	0.582400	0.043050
C791	C79	0.886100	0.718700	0.070390
C801	C80	0.851900	0.580700	0.087280
C811	C81	0.901900	0.821300	0.075420
C821	C82	0.911400	0.881900	0.052300
H531	H53	0.906100	0.859800	0.032900
C831	C83	0.929000	0.976300	0.057380
H541	H54	0.934500	0.018400	0.041300
C841	C84	0.928000	0.949200	0.106400
H551	H55	0.933200	0.973200	0.125600
C851	C85	0.910500	0.855700	0.103160
H561	H56	0.904500	0.815700	0.119700
C861	C86	0.829200	0.526500	0.111610
C871	C87	0.807500	0.573800	0.134550
H571	H57	0.806600	0.643100	0.135200
C881	C88	0.786900	0.519400	0.156830
H581	H58	0.771800	0.552600	0.172600
C891	C89	0.809200	0.375800	0.134500
H591	H59	0.810200	0.306400	0.134400
C901	C90	0.830000	0.425400	0.111640
H601	H60	0.844700	0.390800	0.096000
C911	C91	0.694400	0.569000	0.738300
H611	H61	0.666500	0.588800	0.727400
C921	C92	0.687200	0.533000	0.766530
H621	H62	0.655200	0.528200	0.774600
C931	C93	0.727900	0.504700	0.782200
C941	C94	0.774300	0.508100	0.769070
H631	H63	0.802700	0.486500	0.779200
C951	C95	0.777400	0.543600	0.741210
H641	H64	0.808700	0.545000	0.732100
C961	C96	0.722600	0.474300	0.813420
C971	C97	0.676400	0.440600	0.852080
C981	C98	0.758400	0.438700	0.856120
C991	C99	0.627600	0.428800	0.865410
C1001	C100	0.585300	0.429600	0.848830
H651	H65	0.587300	0.442200	0.828500
C1011	C101	0.540600	0.412200	0.861480
H661	H66	0.512200	0.411600	0.849500
C1021	C102	0.575900	0.398700	0.906860
H671	H67	0.572600	0.389600	0.927300
C1031	C103	0.622100	0.414400	0.895170
H681	H68	0.650000	0.415300	0.907600
C1041	C104	0.803500	0.423600	0.873650
C1051	C105	0.801300	0.396800	0.902560
H691	H69	0.770400	0.389200	0.911800
C1061	C106	0.843600	0.381100	0.918000
H701	H70	0.841300	0.362100	0.937900
C1071	C107	0.890400	0.419200	0.877740
H711	H71	0.921700	0.428300	0.869000
C1081	C108	0.849500	0.434700	0.861120
H721	H72	0.852500	0.452900	0.841200
I131	I13	0.018070	0.458650	0.902690
I141	I14	0.952570	0.176980	0.936460
I151	I15	0.805550	0.188380	0.196420
I161	I16	0.662470	0.327230	0.177760
I171	I17	0.922340	0.225260	0.132330
I181	I18	0.983360	0.223640	0.042290
N251	N25	0.935900	0.429900	0.967600
N261	N26	0.897500	0.678300	0.044780
N271	N27	0.863400	0.673400	0.092440
N281	N28	0.862300	0.530500	0.062930
N291	N29	0.937900	0.008300	0.083850
N301	N30	0.787500	0.420900	0.156970
N311	N31	0.738300	0.576600	0.726100
N321	N32	0.677800	0.465500	0.823940
N331	N33	0.715400	0.427700	0.869350
N341	N34	0.764600	0.461200	0.828160
N351	N35	0.535700	0.396100	0.890110
N361	N36	0.888500	0.391600	0.905980
Zn71	Zn7	0.951930	0.360790	0.928600
Zn81	Zn8	0.753590	0.341810	0.188920
Zn91	Zn9	0.968840	0.142660	0.091480
C1091	C109	0.552000	0.476100	0.472150
H731	H73	0.531400	0.444300	0.458400
C1101	C110	0.568000	0.425200	0.495660
H741	H74	0.559300	0.358500	0.497900
C1111	C111	0.597200	0.470200	0.516440
C1121	C112	0.609100	0.568300	0.512480
H751	H75	0.628700	0.602200	0.526300
C1131	C113	0.591600	0.614300	0.487930
H761	H76	0.599500	0.681300	0.485200
C1141	C114	0.613900	0.417600	0.543050
C1151	C115	0.613900	0.281300	0.570390
C1161	C116	0.648100	0.419300	0.587280
C1171	C117	0.598100	0.178700	0.575420
C1181	C118	0.588600	0.118100	0.552300
H771	H77	0.593900	0.140200	0.532900
C1191	C119	0.571000	0.023700	0.557380
H781	H78	0.565500	0.981600	0.541300
C1201	C120	0.572000	0.050800	0.606400
H791	H79	0.566800	0.026800	0.625600
C1211	C121	0.589500	0.144300	0.603160
H801	H80	0.595500	0.184300	0.619700
C1221	C122	0.670800	0.473500	0.611610
C1231	C123	0.692500	0.426200	0.634550
H811	H81	0.693400	0.356900	0.635200
C1241	C124	0.713100	0.480600	0.656830
H821	H82	0.728200	0.447400	0.672600
C1251	C125	0.690800	0.624200	0.634500
H831	H83	0.689800	0.693600	0.634400
C1261	C126	0.670000	0.574600	0.611640
H841	H84	0.655300	0.609200	0.596000
C1271	C127	0.805600	0.431000	0.238300
H851	H85	0.833500	0.411200	0.227400
C1281	C128	0.812800	0.467000	0.266530
H861	H86	0.844800	0.471800	0.274600
C1291	C129	0.772100	0.495300	0.282200
C1301	C130	0.725700	0.491900	0.269070
H871	H87	0.697300	0.513500	0.279200
C1311	C131	0.722600	0.456400	0.241210
H881	H88	0.691300	0.455000	0.232100
C1321	C132	0.777400	0.525700	0.313420
C1331	C133	0.823600	0.559400	0.352080
C1341	C134	0.741600	0.561300	0.356120
C1351	C135	0.872400	0.571200	0.365410
C1361	C136	0.914700	0.570400	0.348830
H891	H89	0.912700	0.557800	0.328500
C1371	C137	0.959400	0.587800	0.361480
H901	H90	0.987800	0.588400	0.349500
C1381	C138	0.924100	0.601300	0.406860
H911	H91	0.927400	0.610400	0.427300
C1391	C139	0.877900	0.585600	0.395170
H921	H92	0.850000	0.584700	0.407600
C1401	C140	0.696500	0.576400	0.373650
C1411	C141	0.698700	0.603200	0.402560
H931	H93	0.729600	0.610800	0.411800
C1421	C142	0.656400	0.618900	0.418000
H941	H94	0.658700	0.637900	0.437900
C1431	C143	0.609600	0.580800	0.377740
H951	H95	0.578300	0.571700	0.369000
C1441	C144	0.650500	0.565300	0.361120
H961	H96	0.647500	0.547100	0.341200
I191	I19	0.481930	0.541350	0.402690
I201	I20	0.547430	0.823020	0.436460
I211	I21	0.694450	0.811620	0.696420
I221	I22	0.837530	0.672770	0.677760
I231	I23	0.577660	0.774740	0.632330
I241	I24	0.516640	0.776360	0.542290
N371	N37	0.564100	0.570100	0.467600
N381	N38	0.602500	0.321700	0.544780
N391	N39	0.636600	0.326600	0.592440
N401	N40	0.637700	0.469500	0.562930
N411	N41	0.562100	0.991700	0.583850
N421	N42	0.712500	0.579100	0.656970
N431	N43	0.761700	0.423400	0.226100
N441	N44	0.822200	0.534500	0.323940
N451	N45	0.784600	0.572300	0.369350
N461	N46	0.735400	0.538800	0.328160
N471	N47	0.964300	0.603900	0.390110
N481	N48	0.611500	0.608400	0.405980
Zn101	Zn10	0.548070	0.639210	0.428600
Zn111	Zn11	0.746410	0.658190	0.688920
Zn121	Zn12	0.531160	0.857340	0.591480
C1451	C145	0.948000	0.976100	0.472150
H971	H97	0.968600	0.944300	0.458400
C1461	C146	0.932000	0.925200	0.495660
H981	H98	0.940700	0.858500	0.497900
C1471	C147	0.902800	0.970200	0.516440
C1481	C148	0.890900	0.068300	0.512480
H991	H99	0.871300	0.102200	0.526300
C1491	C149	0.908400	0.114300	0.487930
H1001	H100	0.900500	0.181300	0.485200
C1501	C150	0.886100	0.917600	0.543050
C1511	C151	0.886100	0.781300	0.570390
C1521	C152	0.851900	0.919300	0.587280
C1531	C153	0.901900	0.678700	0.575420
C1541	C154	0.911400	0.618100	0.552300
H1011	H101	0.906100	0.640200	0.532900
C1551	C155	0.929000	0.523700	0.557380
H1021	H102	0.934500	0.481600	0.541300
C1561	C156	0.928000	0.550800	0.606400
H1031	H103	0.933200	0.526800	0.625600
C1571	C157	0.910500	0.644300	0.603160
H1041	H104	0.904500	0.684300	0.619700
C1581	C158	0.829200	0.973500	0.611610
C1591	C159	0.807500	0.926200	0.634550
H1051	H105	0.806600	0.856900	0.635200
C1601	C160	0.786900	0.980600	0.656830
H1061	H106	0.771800	0.947400	0.672600
C1611	C161	0.809200	0.124200	0.634500
H1071	H107	0.810200	0.193600	0.634400
C1621	C162	0.830000	0.074600	0.611640
H1081	H108	0.844700	0.109200	0.596000
C1631	C163	0.694400	0.931000	0.238300
H1091	H109	0.666500	0.911200	0.227400
C1641	C164	0.687200	0.967000	0.266530
H1101	H110	0.655200	0.971800	0.274600
C1651	C165	0.727900	0.995300	0.282200
C1661	C166	0.774300	0.991900	0.269070
H1111	H111	0.802700	0.013500	0.279200
C1671	C167	0.777400	0.956400	0.241210
H1121	H112	0.808700	0.955000	0.232100
C1681	C168	0.722600	0.025700	0.313420
C1691	C169	0.676400	0.059400	0.352080
C1701	C170	0.758400	0.061300	0.356120
C1711	C171	0.627600	0.071200	0.365410
C1721	C172	0.585300	0.070400	0.348830
H1131	H113	0.587300	0.057800	0.328500
C1731	C173	0.540600	0.087800	0.361480
H1141	H114	0.512200	0.088400	0.349500
C1741	C174	0.575900	0.101300	0.406860
H1151	H115	0.572600	0.110400	0.427300
C1751	C175	0.622100	0.085600	0.395170
H1161	H116	0.650000	0.084700	0.407600
C1761	C176	0.803500	0.076400	0.373650
C1771	C177	0.801300	0.103200	0.402560
H1171	H117	0.770400	0.110800	0.411800
C1781	C178	0.843600	0.118900	0.418000
H1181	H118	0.841300	0.137900	0.437900
C1791	C179	0.890400	0.080800	0.377740
H1191	H119	0.921700	0.071700	0.369000
C1801	C180	0.849500	0.065300	0.361120
H1201	H120	0.852500	0.047100	0.341200
I251	I25	0.018070	0.041350	0.402690
I261	I26	0.952570	0.323020	0.436460
I271	I27	0.805550	0.311620	0.696420
I281	I28	0.662470	0.172770	0.677760
I291	I29	0.922340	0.274740	0.632330
I301	I30	0.983360	0.276360	0.542290
N491	N49	0.935900	0.070100	0.467600
N501	N50	0.897500	0.821700	0.544780
N511	N51	0.863400	0.826600	0.592440
N521	N52	0.862300	0.969500	0.562930
N531	N53	0.937900	0.491700	0.583850
N541	N54	0.787500	0.079100	0.656970
N551	N55	0.738300	0.923400	0.226100
N561	N56	0.677800	0.034500	0.323940
N571	N57	0.715400	0.072300	0.369350
N581	N58	0.764600	0.038800	0.328160
N591	N59	0.535700	0.103900	0.390110
N601	N60	0.888500	0.108400	0.405980
Zn131	Zn13	0.951930	0.139210	0.428600
Zn141	Zn14	0.753590	0.158190	0.688920
Zn151	Zn15	0.968840	0.357340	0.591480
C1811	C181	0.552000	0.023900	0.972150
H1211	H121	0.531400	0.055700	0.958400
C1821	C182	0.568000	0.074800	0.995660
H1221	H122	0.559300	0.141500	0.997900
C1831	C183	0.597200	0.029800	0.016440
C1841	C184	0.609100	0.931700	0.012480
H1231	H123	0.628700	0.897800	0.026300
C1851	C185	0.591600	0.885700	0.987930
H1241	H124	0.599500	0.818700	0.985200
C1861	C186	0.613900	0.082400	0.043050
C1871	C187	0.613900	0.218700	0.070390
C1881	C188	0.648100	0.080700	0.087280
C1891	C189	0.598100	0.321300	0.075420
C1901	C190	0.588600	0.381900	0.052300
H1251	H125	0.593900	0.359800	0.032900
C1911	C191	0.571000	0.476300	0.057380
H1261	H126	0.565500	0.518400	0.041300
C1921	C192	0.572000	0.449200	0.106400
H1271	H127	0.566800	0.473200	0.125600
C1931	C193	0.589500	0.355700	0.103160
H1281	H128	0.595500	0.315700	0.119700
C1941	C194	0.670800	0.026500	0.111610
C1951	C195	0.692500	0.073800	0.134550
H1291	H129	0.693400	0.143100	0.135200
C1961	C196	0.713100	0.019400	0.156830
H1301	H130	0.728200	0.052600	0.172600
C1971	C197	0.690800	0.875800	0.134500
H1311	H131	0.689800	0.806400	0.134400
C1981	C198	0.670000	0.925400	0.111640
H1321	H132	0.655300	0.890800	0.096000
C1991	C199	0.805600	0.069000	0.738300
H1331	H133	0.833500	0.088800	0.727400
C2001	C200	0.812800	0.033000	0.766530
H1341	H134	0.844800	0.028200	0.774600
C2011	C201	0.772100	0.004700	0.782200
C2021	C202	0.725700	0.008100	0.769070
H1351	H135	0.697300	0.986500	0.779200
C2031	C203	0.722600	0.043600	0.741210
H1361	H136	0.691300	0.045000	0.732100
C2041	C204	0.777400	0.974300	0.813420
C2051	C205	0.823600	0.940600	0.852080
C2061	C206	0.741600	0.938700	0.856120
C2071	C207	0.872400	0.928800	0.865410
C2081	C208	0.914700	0.929600	0.848830
H1371	H137	0.912700	0.942200	0.828500
C2091	C209	0.959400	0.912200	0.861480
H1381	H138	0.987800	0.911600	0.849500
C2101	C210	0.924100	0.898700	0.906860
H1391	H139	0.927400	0.889600	0.927300
C2111	C211	0.877900	0.914400	0.895170
H1401	H140	0.850000	0.915300	0.907600
C2121	C212	0.696500	0.923600	0.873650
C2131	C213	0.698700	0.896800	0.902560
H1411	H141	0.729600	0.889200	0.911800
C2141	C214	0.656400	0.881100	0.918000
H1421	H142	0.658700	0.862100	0.937900
C2151	C215	0.609600	0.919200	0.877740
H1431	H143	0.578300	0.928300	0.869000
C2161	C216	0.650500	0.934700	0.861120
H1441	H144	0.647500	0.952900	0.841200
I311	I31	0.481930	0.958650	0.902690
I321	I32	0.547430	0.676980	0.936460
I331	I33	0.694450	0.688380	0.196420
I341	I34	0.837530	0.827230	0.177760
I351	I35	0.577660	0.725260	0.132330
I361	I36	0.516640	0.723640	0.042290
N611	N61	0.564100	0.929900	0.967600
N621	N62	0.602500	0.178300	0.044780
N631	N63	0.636600	0.173400	0.092440
N641	N64	0.637700	0.030500	0.062930
N651	N65	0.562100	0.508300	0.083850
N661	N66	0.712500	0.920900	0.156970
N671	N67	0.761700	0.076600	0.726100
N681	N68	0.822200	0.965500	0.823940
N691	N69	0.784600	0.927700	0.869350
N701	N70	0.735400	0.961200	0.828160
N711	N71	0.964300	0.896100	0.890110
N721	N72	0.611500	0.891600	0.905980
Zn161	Zn16	0.548070	0.860790	0.928600
Zn171	Zn17	0.746410	0.841810	0.188920
Zn181	Zn18	0.531160	0.642660	0.091480
C2171	C217	0.052000	0.476100	0.027850
H1451	H145	0.031400	0.444300	0.041600
C2181	C218	0.068000	0.425200	0.004340
H1461	H146	0.059300	0.358500	0.002100
C2191	C219	0.097200	0.470200	0.983560
C2201	C220	0.109100	0.568300	0.987520
H1471	H147	0.128700	0.602200	0.973700
C2211	C221	0.091600	0.614300	0.012070
H1481	H148	0.099500	0.681300	0.014800
C2221	C222	0.113900	0.417600	0.956950
C2231	C223	0.113900	0.281300	0.929610
C2241	C224	0.148100	0.419300	0.912720
C2251	C225	0.098100	0.178700	0.924580
C2261	C226	0.088600	0.118100	0.947700
H1491	H149	0.093900	0.140200	0.967100
C2271	C227	0.071000	0.023700	0.942620
H1501	H150	0.065500	0.981600	0.958700
C2281	C228	0.072000	0.050800	0.893600
H1511	H151	0.066800	0.026800	0.874400
C2291	C229	0.089500	0.144300	0.896840
H1521	H152	0.095500	0.184300	0.880300
C2301	C230	0.170800	0.473500	0.888390
C2311	C231	0.192500	0.426200	0.865450
H1531	H153	0.193400	0.356900	0.864800
C2321	C232	0.213100	0.480600	0.843170
H1541	H154	0.228200	0.447400	0.827400
C2331	C233	0.190800	0.624200	0.865500
H1551	H155	0.189800	0.693600	0.865600
C2341	C234	0.170000	0.574600	0.888360
H1561	H156	0.155300	0.609200	0.904000
C2351	C235	0.305600	0.431000	0.261700
H1571	H157	0.333500	0.411200	0.272600
C2361	C236	0.312800	0.467000	0.233470
H1581	H158	0.344800	0.471800	0.225400
C2371	C237	0.272100	0.495300	0.217800
C2381	C238	0.225700	0.491900	0.230930
H1591	H159	0.197300	0.513500	0.220800
C2391	C239	0.222600	0.456400	0.258790
H1601	H160	0.191300	0.455000	0.267900
C2401	C240	0.277400	0.525700	0.186580
C2411	C241	0.323600	0.559400	0.147920
C2421	C242	0.241600	0.561300	0.143880
C2431	C243	0.372400	0.571200	0.134590
C2441	C244	0.414700	0.570400	0.151170
H1611	H161	0.412700	0.557800	0.171500
C2451	C245	0.459400	0.587800	0.138520
H1621	H162	0.487800	0.588400	0.150500
C2461	C246	0.424100	0.601300	0.093140
H1631	H163	0.427400	0.610400	0.072700
C2471	C247	0.377900	0.585600	0.104830
H1641	H164	0.350000	0.584700	0.092400
C2481	C248	0.196500	0.576400	0.126350
C2491	C249	0.198700	0.603200	0.097440
H1651	H165	0.229600	0.610800	0.088200
C2501	C250	0.156400	0.618900	0.082000
H1661	H166	0.158700	0.637900	0.062100
C2511	C251	0.109600	0.580800	0.122260
H1671	H167	0.078300	0.571700	0.131000
C2521	C252	0.150500	0.565300	0.138880
H1681	H168	0.147500	0.547100	0.158800
I371	I37	0.981930	0.541350	0.097310
I381	I38	0.047430	0.823020	0.063540
I391	I39	0.194450	0.811620	0.803580
I401	I40	0.337530	0.672770	0.822240
I411	I41	0.077660	0.774740	0.867670
I421	I42	0.016640	0.776360	0.957710
N731	N73	0.064100	0.570100	0.032400
N741	N74	0.102500	0.321700	0.955220
N751	N75	0.136600	0.326600	0.907560
N761	N76	0.137700	0.469500	0.937070
N771	N77	0.062100	0.991700	0.916150
N781	N78	0.212500	0.579100	0.843030
N791	N79	0.261700	0.423400	0.273900
N801	N80	0.322200	0.534500	0.176060
N811	N81	0.284600	0.572300	0.130650
N821	N82	0.235400	0.538800	0.171840
N831	N83	0.464300	0.603900	0.109890
N841	N84	0.111500	0.608400	0.094020
Zn191	Zn19	0.048070	0.639210	0.071400
Zn201	Zn20	0.246410	0.658190	0.811080
Zn211	Zn21	0.031160	0.857340	0.908520
C2531	C253	0.448000	0.523900	0.527850
H1691	H169	0.468600	0.555700	0.541600
C2541	C254	0.432000	0.574800	0.504340
H1701	H170	0.440700	0.641500	0.502100
C2551	C255	0.402800	0.529800	0.483560
C2561	C256	0.390900	0.431700	0.487520
H1711	H171	0.371300	0.397800	0.473700
C2571	C257	0.408400	0.385700	0.512070
H1721	H172	0.400500	0.318700	0.514800
C2581	C258	0.386100	0.582400	0.456950
C2591	C259	0.386100	0.718700	0.429610
C2601	C260	0.351900	0.580700	0.412720
C2611	C261	0.401900	0.821300	0.424580
C2621	C262	0.411400	0.881900	0.447700
H1731	H173	0.406100	0.859800	0.467100
C2631	C263	0.429000	0.976300	0.442620
H1741	H174	0.434500	0.018400	0.458700
C2641	C264	0.428000	0.949200	0.393600
H1751	H175	0.433200	0.973200	0.374400
C2651	C265	0.410500	0.855700	0.396840
H1761	H176	0.404500	0.815700	0.380300
C2661	C266	0.329200	0.526500	0.388390
C2671	C267	0.307500	0.573800	0.365450
H1771	H177	0.306600	0.643100	0.364800
C2681	C268	0.286900	0.519400	0.343170
H1781	H178	0.271800	0.552600	0.327400
C2691	C269	0.309200	0.375800	0.365500
H1791	H179	0.310200	0.306400	0.365600
C2701	C270	0.330000	0.425400	0.388360
H1801	H180	0.344700	0.390800	0.404000
C2711	C271	0.194400	0.569000	0.761700
H1811	H181	0.166500	0.588800	0.772600
C2721	C272	0.187200	0.533000	0.733470
H1821	H182	0.155200	0.528200	0.725400
C2731	C273	0.227900	0.504700	0.717800
C2741	C274	0.274300	0.508100	0.730930
H1831	H183	0.302700	0.486500	0.720800
C2751	C275	0.277400	0.543600	0.758790
H1841	H184	0.308700	0.545000	0.767900
C2761	C276	0.222600	0.474300	0.686580
C2771	C277	0.176400	0.440600	0.647920
C2781	C278	0.258400	0.438700	0.643880
C2791	C279	0.127600	0.428800	0.634590
C2801	C280	0.085300	0.429600	0.651170
H1851	H185	0.087300	0.442200	0.671500
C2811	C281	0.040600	0.412200	0.638520
H1861	H186	0.012200	0.411600	0.650500
C2821	C282	0.075900	0.398700	0.593140
H1871	H187	0.072600	0.389600	0.572700
C2831	C283	0.122100	0.414400	0.604830
H1881	H188	0.150000	0.415300	0.592400
C2841	C284	0.303500	0.423600	0.626350
C2851	C285	0.301300	0.396800	0.597440
H1891	H189	0.270400	0.389200	0.588200
C2861	C286	0.343600	0.381100	0.582000
H1901	H190	0.341300	0.362100	0.562100
C2871	C287	0.390400	0.419200	0.622260
H1911	H191	0.421700	0.428300	0.631000
C2881	C288	0.349500	0.434700	0.638880
H1921	H192	0.352500	0.452900	0.658800
I431	I43	0.518070	0.458650	0.597310
I441	I44	0.452570	0.176980	0.563540
I451	I45	0.305550	0.188380	0.303580
I461	I46	0.162470	0.327230	0.322240
I471	I47	0.422340	0.225260	0.367670
I481	I48	0.483360	0.223640	0.457710
N851	N85	0.435900	0.429900	0.532400
N861	N86	0.397500	0.678300	0.455220
N871	N87	0.363400	0.673400	0.407560
N881	N88	0.362300	0.530500	0.437070
N891	N89	0.437900	0.008300	0.416150
N901	N90	0.287500	0.420900	0.343030
N911	N91	0.238300	0.576600	0.773900
N921	N92	0.177800	0.465500	0.676060
N931	N93	0.215400	0.427700	0.630650
N941	N94	0.264600	0.461200	0.671840
N951	N95	0.035700	0.396100	0.609890
N961	N96	0.388500	0.391600	0.594020
Zn221	Zn22	0.451930	0.360790	0.571400
Zn231	Zn23	0.253590	0.341810	0.311080
Zn241	Zn24	0.468840	0.142660	0.408520
