data_XAPCOJ05_clean_PM
_symmetry_space_group_name_H-M	'P1'
_cell_length_a	15.126700
_cell_length_b	15.126700
_cell_length_c	12.036300
_cell_angle_alpha	90.000000
_cell_angle_beta	90.000000
_cell_angle_gamma	90.000000
_symmetry_Int_Tables_number 1

loop_
_symmetry_equiv_pos_as_xyz
'x,y,z'

loop_
_atom_site_label
_atom_site_type_symbol
_atom_site_fract_x
_atom_site_fract_y
_atom_site_fract_z
O11	O1	0.601300	0.290400	0.755900
O21	O2	0.618000	0.377100	0.608500
C11	C1	0.595800	0.362700	0.705200
C21	C2	0.546700	0.435600	0.760400
C31	C3	0.547600	0.433200	0.879400
H11	H1	0.573180	0.381620	0.907350
O31	O3	0.101300	0.790400	0.255900
O41	O4	0.118000	0.877100	0.108500
C41	C4	0.095800	0.862700	0.205200
C51	C5	0.046700	0.935600	0.260400
C61	C6	0.047600	0.933200	0.379400
H21	H2	0.073180	0.881620	0.407350
O51	O5	0.898700	0.209600	0.255900
O61	O6	0.882000	0.122900	0.108500
C71	C7	0.904200	0.137300	0.205200
C81	C8	0.953300	0.064400	0.260400
C91	C9	0.952400	0.066800	0.379400
H31	H3	0.926820	0.118380	0.407350
O71	O7	0.398700	0.709600	0.755900
O81	O8	0.382000	0.622900	0.608500
C101	C10	0.404200	0.637300	0.705200
C111	C11	0.453300	0.564400	0.760400
C121	C12	0.452400	0.566800	0.879400
H41	H4	0.426820	0.618380	0.907350
O91	O9	0.709600	0.101300	0.005900
O101	O10	0.622900	0.118000	0.858500
C131	C13	0.637300	0.095800	0.955200
C141	C14	0.564400	0.046700	0.010400
C151	C15	0.566800	0.047600	0.129400
H51	H5	0.618380	0.073180	0.157350
O111	O11	0.209600	0.601300	0.505900
O121	O12	0.122900	0.618000	0.358500
C161	C16	0.137300	0.595800	0.455200
C171	C17	0.064400	0.546700	0.510400
C181	C18	0.066800	0.547600	0.629400
H61	H6	0.118380	0.573180	0.657350
O131	O13	0.790400	0.398700	0.505900
O141	O14	0.877100	0.382000	0.358500
C191	C19	0.862700	0.404200	0.455200
C201	C20	0.935600	0.453300	0.510400
C211	C21	0.933200	0.452400	0.629400
H71	H7	0.881620	0.426820	0.657350
O151	O15	0.290400	0.898700	0.005900
O161	O16	0.377100	0.882000	0.858500
C221	C22	0.362700	0.904200	0.955200
C231	C23	0.435600	0.953300	0.010400
C241	C24	0.433200	0.952400	0.129400
H81	H8	0.381620	0.926820	0.157350
O171	O17	0.898700	0.290400	0.994100
O181	O18	0.882000	0.377100	0.141500
C251	C25	0.904200	0.362700	0.044800
C261	C26	0.953300	0.435600	0.989600
C271	C27	0.952400	0.433200	0.870600
H91	H9	0.926820	0.381620	0.842650
O191	O19	0.398700	0.790400	0.494100
O201	O20	0.382000	0.877100	0.641500
C281	C28	0.404200	0.862700	0.544800
C291	C29	0.453300	0.935600	0.489600
C301	C30	0.452400	0.933200	0.370600
H101	H10	0.426820	0.881620	0.342650
O211	O21	0.601300	0.209600	0.494100
O221	O22	0.618000	0.122900	0.641500
C311	C31	0.595800	0.137300	0.544800
C321	C32	0.546700	0.064400	0.489600
C331	C33	0.547600	0.066800	0.370600
H111	H11	0.573180	0.118380	0.342650
O231	O23	0.101300	0.709600	0.994100
O241	O24	0.118000	0.622900	0.141500
C341	C34	0.095800	0.637300	0.044800
C351	C35	0.046700	0.564400	0.989600
C361	C36	0.047600	0.566800	0.870600
H121	H12	0.073180	0.618380	0.842650
O251	O25	0.790400	0.101300	0.744100
O261	O26	0.877100	0.118000	0.891500
C371	C37	0.862700	0.095800	0.794800
C381	C38	0.935600	0.046700	0.739600
C391	C39	0.933200	0.047600	0.620600
H131	H13	0.881620	0.073180	0.592650
O271	O27	0.290400	0.601300	0.244100
O281	O28	0.377100	0.618000	0.391500
C401	C40	0.362700	0.595800	0.294800
C411	C41	0.435600	0.546700	0.239600
C421	C42	0.433200	0.547600	0.120600
H141	H14	0.381620	0.573180	0.092650
O291	O29	0.709600	0.398700	0.244100
O301	O30	0.622900	0.382000	0.391500
C431	C43	0.637300	0.404200	0.294800
C441	C44	0.564400	0.453300	0.239600
C451	C45	0.566800	0.452400	0.120600
H151	H15	0.618380	0.426820	0.092650
O311	O31	0.209600	0.898700	0.744100
O321	O32	0.122900	0.882000	0.891500
C461	C46	0.137300	0.904200	0.794800
C471	C47	0.064400	0.953300	0.739600
C481	C48	0.066800	0.952400	0.620600
H161	H16	0.118380	0.926820	0.592650
V11	V1	0.690160	0.309840	0.500000
V21	V2	0.190160	0.809840	0.000000
V31	V3	0.809840	0.190160	0.000000
V41	V4	0.309840	0.690160	0.500000
V51	V5	0.690160	0.190160	0.750000
V61	V6	0.190160	0.690160	0.250000
V71	V7	0.809840	0.309840	0.250000
V81	V8	0.309840	0.809840	0.750000
O331	O33	0.746300	0.250000	0.625000
H171	H17	0.806000	0.250000	0.625000
O341	O34	0.246300	0.750000	0.125000
H181	H18	0.306000	0.750000	0.125000
O351	O35	0.753700	0.250000	0.125000
H191	H19	0.694000	0.250000	0.125000
O361	O36	0.253700	0.750000	0.625000
H201	H20	0.194000	0.750000	0.625000
O371	O37	0.750000	0.246300	0.875000
H211	H21	0.750000	0.306000	0.875000
O381	O38	0.250000	0.746300	0.375000
H221	H22	0.250000	0.806000	0.375000
O391	O39	0.750000	0.253700	0.375000
H231	H23	0.750000	0.194000	0.375000
O401	O40	0.250000	0.753700	0.875000
H241	H24	0.250000	0.694000	0.875000
C491	C49	0.500000	0.500000	0.703000
C501	C50	0.500000	0.500000	0.936200
H251	H25	0.500000	0.500000	0.626000
C511	C51	0.000000	0.000000	0.203000
C521	C52	0.000000	0.000000	0.436200
H261	H26	0.000000	0.000000	0.126000
C531	C53	0.500000	0.000000	0.953000
C541	C54	0.500000	0.000000	0.186200
H271	H27	0.500000	0.000000	0.876000
C551	C55	0.000000	0.500000	0.453000
C561	C56	0.000000	0.500000	0.686200
H281	H28	0.000000	0.500000	0.376000
C571	C57	0.000000	0.500000	0.047000
C581	C58	0.000000	0.500000	0.813800
H291	H29	0.000000	0.500000	0.124000
C591	C59	0.500000	0.000000	0.547000
C601	C60	0.500000	0.000000	0.313800
H301	H30	0.500000	0.000000	0.624000
C611	C61	0.000000	0.000000	0.797000
C621	C62	0.000000	0.000000	0.563800
H311	H31	0.000000	0.000000	0.874000
C631	C63	0.500000	0.500000	0.297000
C641	C64	0.500000	0.500000	0.063800
H321	H32	0.500000	0.500000	0.374000
