data_XAPDAU_clean_PM
_symmetry_space_group_name_H-M	'P1'
_cell_length_a	27.568000
_cell_length_b	13.728500
_cell_length_c	45.836000
_cell_angle_alpha	90.000000
_cell_angle_beta	90.000000
_cell_angle_gamma	90.000000
_symmetry_Int_Tables_number 1

loop_
_symmetry_equiv_pos_as_xyz
'x,y,z'

loop_
_atom_site_label
_atom_site_type_symbol
_atom_site_fract_x
_atom_site_fract_y
_atom_site_fract_z
C11	C1	0.722500	0.546300	0.259200
H11	H1	0.691100	0.551100	0.267600
C21	C2	0.726400	0.510800	0.231220
H21	H2	0.698400	0.491600	0.220600
C31	C3	0.772300	0.503900	0.218920
C41	C4	0.812700	0.527000	0.235400
H31	H3	0.844500	0.519400	0.227700
C51	C5	0.805300	0.561800	0.263640
H41	H4	0.832800	0.577300	0.275200
C61	C6	0.778100	0.476300	0.187620
C71	C7	0.742600	0.440900	0.144570
C81	C8	0.824300	0.443400	0.148550
C91	C9	0.698000	0.426700	0.126820
C101	C10	0.652400	0.439500	0.139950
H51	H5	0.649800	0.458500	0.159800
C111	C11	0.611600	0.423600	0.123200
H61	H6	0.580700	0.433500	0.131900
C121	C12	0.657700	0.384200	0.082670
H71	H7	0.659500	0.365200	0.062800
C131	C13	0.700000	0.399800	0.097800
H81	H8	0.730400	0.392200	0.088400
C141	C14	0.872600	0.432100	0.135020
C151	C15	0.877500	0.417100	0.105310
H91	H9	0.849800	0.416300	0.093000
C161	C16	0.923600	0.403200	0.093850
H101	H10	0.926900	0.395300	0.073300
C171	C17	0.959100	0.416300	0.139110
H111	H11	0.987300	0.416500	0.151000
C181	C18	0.914300	0.432700	0.152080
H121	H12	0.912100	0.444200	0.172500
C191	C19	0.810200	0.626600	0.366030
H131	H13	0.811300	0.695800	0.365700
C201	C20	0.831800	0.577000	0.388890
H141	H14	0.847600	0.612200	0.404000
C211	C21	0.830500	0.477100	0.389720
C221	C22	0.807400	0.428200	0.367500
H151	H15	0.805600	0.359100	0.367500
C231	C23	0.786600	0.481700	0.344940
H161	H16	0.771100	0.447900	0.329400
C241	C24	0.854600	0.423500	0.413700
C251	C25	0.889800	0.422400	0.457890
C261	C26	0.888800	0.285300	0.430450
C271	C27	0.949700	0.480800	0.529370
H171	H17	0.969400	0.449100	0.543500
C281	C28	0.935200	0.429600	0.505500
H181	H18	0.944500	0.363400	0.503100
C291	C29	0.906800	0.475200	0.484570
C301	C30	0.894900	0.572700	0.488380
H191	H19	0.876000	0.606400	0.474300
C311	C31	0.911300	0.619300	0.513140
H201	H20	0.903700	0.686300	0.515700
C321	C32	0.932800	0.029400	0.443100
H211	H21	0.939100	0.987700	0.459200
C331	C33	0.916000	0.123700	0.448300
H221	H22	0.911900	0.146300	0.467700
C341	C34	0.905300	0.184000	0.425060
C351	C35	0.912100	0.148600	0.396900
H231	H23	0.905400	0.188100	0.380400
C361	C36	0.928800	0.054900	0.393700
H241	H24	0.932400	0.030000	0.374500
I11	I1	0.804790	0.810300	0.303920
I21	I2	0.663050	0.671930	0.323710
I31	I3	0.076660	0.281180	0.133190
I41	I4	0.015210	0.278620	0.042960
I51	I5	0.483030	0.452310	0.100410
I61	I6	0.550860	0.174950	0.066480
N11	N1	0.761000	0.574400	0.275290
N21	N2	0.736800	0.463800	0.172450
N31	N3	0.785500	0.430100	0.131050
N41	N4	0.822700	0.466500	0.176890
N51	N5	0.613600	0.395000	0.095300
N61	N6	0.964100	0.400300	0.110560
N71	N7	0.787600	0.579400	0.344300
N81	N8	0.865900	0.473000	0.437810
N91	N9	0.901700	0.328000	0.455660
N101	N10	0.864900	0.329300	0.408810
N111	N11	0.937300	0.574300	0.533760
N121	N12	0.940100	0.996400	0.416200
Zn11	Zn1	0.753240	0.657550	0.312200
Zn21	Zn2	0.029800	0.361760	0.092050
Zn31	Zn3	0.549540	0.359040	0.073720
C371	C37	0.777500	0.453700	0.759200
H251	H25	0.808900	0.448900	0.767600
C381	C38	0.773600	0.489200	0.731220
H261	H26	0.801600	0.508400	0.720600
C391	C39	0.727700	0.496100	0.718920
C401	C40	0.687300	0.473000	0.735400
H271	H27	0.655500	0.480600	0.727700
C411	C41	0.694700	0.438200	0.763640
H281	H28	0.667200	0.422700	0.775200
C421	C42	0.721900	0.523700	0.687620
C431	C43	0.757400	0.559100	0.644570
C441	C44	0.675700	0.556600	0.648550
C451	C45	0.802000	0.573300	0.626820
C461	C46	0.847600	0.560500	0.639950
H291	H29	0.850200	0.541500	0.659800
C471	C47	0.888400	0.576400	0.623200
H301	H30	0.919300	0.566500	0.631900
C481	C48	0.842300	0.615800	0.582670
H311	H31	0.840500	0.634800	0.562800
C491	C49	0.800000	0.600200	0.597800
H321	H32	0.769600	0.607800	0.588400
C501	C50	0.627400	0.567900	0.635020
C511	C51	0.622500	0.582900	0.605310
H331	H33	0.650200	0.583700	0.593000
C521	C52	0.576400	0.596800	0.593850
H341	H34	0.573100	0.604700	0.573300
C531	C53	0.540900	0.583700	0.639110
H351	H35	0.512700	0.583500	0.651000
C541	C54	0.585700	0.567300	0.652080
H361	H36	0.587900	0.555800	0.672500
C551	C55	0.689800	0.373400	0.866030
H371	H37	0.688700	0.304200	0.865700
C561	C56	0.668200	0.423000	0.888890
H381	H38	0.652400	0.387800	0.904000
C571	C57	0.669500	0.522900	0.889720
C581	C58	0.692600	0.571800	0.867500
H391	H39	0.694400	0.640900	0.867500
C591	C59	0.713400	0.518300	0.844940
H401	H40	0.728900	0.552100	0.829400
C601	C60	0.645400	0.576500	0.913700
C611	C61	0.610200	0.577600	0.957890
C621	C62	0.611200	0.714700	0.930450
C631	C63	0.550300	0.519200	0.029370
H411	H41	0.530600	0.550900	0.043500
C641	C64	0.564800	0.570400	0.005500
H421	H42	0.555500	0.636600	0.003100
C651	C65	0.593200	0.524800	0.984570
C661	C66	0.605100	0.427300	0.988380
H431	H43	0.624000	0.393600	0.974300
C671	C67	0.588700	0.380700	0.013140
H441	H44	0.596300	0.313700	0.015700
C681	C68	0.567200	0.970600	0.943100
H451	H45	0.560900	0.012300	0.959200
C691	C69	0.584000	0.876300	0.948300
H461	H46	0.588100	0.853700	0.967700
C701	C70	0.594700	0.816000	0.925060
C711	C71	0.587900	0.851400	0.896900
H471	H47	0.594600	0.811900	0.880400
C721	C72	0.571200	0.945100	0.893700
H481	H48	0.567600	0.970000	0.874500
I71	I7	0.695210	0.189700	0.803920
I81	I8	0.836950	0.328070	0.823710
I91	I9	0.423340	0.718820	0.633190
I101	I10	0.484790	0.721380	0.542960
I111	I11	0.016970	0.547690	0.600410
I121	I12	0.949140	0.825050	0.566480
N131	N13	0.739000	0.425600	0.775290
N141	N14	0.763200	0.536200	0.672450
N151	N15	0.714500	0.569900	0.631050
N161	N16	0.677300	0.533500	0.676890
N171	N17	0.886400	0.605000	0.595300
N181	N18	0.535900	0.599700	0.610560
N191	N19	0.712400	0.420600	0.844300
N201	N20	0.634100	0.527000	0.937810
N211	N21	0.598300	0.672000	0.955660
N221	N22	0.635100	0.670700	0.908810
N231	N23	0.562700	0.425700	0.033760
N241	N24	0.559900	0.003600	0.916200
Zn41	Zn4	0.746760	0.342450	0.812200
Zn51	Zn5	0.470200	0.638240	0.592050
Zn61	Zn6	0.950460	0.640960	0.573720
C731	C73	0.277500	0.046300	0.240800
H491	H49	0.308900	0.051100	0.232400
C741	C74	0.273600	0.010800	0.268780
H501	H50	0.301600	0.991600	0.279400
C751	C75	0.227700	0.003900	0.281080
C761	C76	0.187300	0.027000	0.264600
H511	H51	0.155500	0.019400	0.272300
C771	C77	0.194700	0.061800	0.236360
H521	H52	0.167200	0.077300	0.224800
C781	C78	0.221900	0.976300	0.312380
C791	C79	0.257400	0.940900	0.355430
C801	C80	0.175700	0.943400	0.351450
C811	C81	0.302000	0.926700	0.373180
C821	C82	0.347600	0.939500	0.360050
H531	H53	0.350200	0.958500	0.340200
C831	C83	0.388400	0.923600	0.376800
H541	H54	0.419300	0.933500	0.368100
C841	C84	0.342300	0.884200	0.417330
H551	H55	0.340500	0.865200	0.437200
C851	C85	0.300000	0.899800	0.402200
H561	H56	0.269600	0.892200	0.411600
C861	C86	0.127400	0.932100	0.364980
C871	C87	0.122500	0.917100	0.394690
H571	H57	0.150200	0.916300	0.407000
C881	C88	0.076400	0.903200	0.406150
H581	H58	0.073100	0.895300	0.426700
C891	C89	0.040900	0.916300	0.360890
H591	H59	0.012700	0.916500	0.349000
C901	C90	0.085700	0.932700	0.347920
H601	H60	0.087900	0.944200	0.327500
C911	C91	0.189800	0.126600	0.133970
H611	H61	0.188700	0.195800	0.134300
C921	C92	0.168200	0.077000	0.111110
H621	H62	0.152400	0.112200	0.096000
C931	C93	0.169500	0.977100	0.110280
C941	C94	0.192600	0.928200	0.132500
H631	H63	0.194400	0.859100	0.132500
C951	C95	0.213400	0.981700	0.155060
H641	H64	0.228900	0.947900	0.170600
C961	C96	0.145400	0.923500	0.086300
C971	C97	0.110200	0.922400	0.042110
C981	C98	0.111200	0.785300	0.069550
C991	C99	0.050300	0.980800	0.970630
H651	H65	0.030600	0.949100	0.956500
C1001	C100	0.064800	0.929600	0.994500
H661	H66	0.055500	0.863400	0.996900
C1011	C101	0.093200	0.975200	0.015430
C1021	C102	0.105100	0.072700	0.011620
H671	H67	0.124000	0.106400	0.025700
C1031	C103	0.088700	0.119300	0.986860
H681	H68	0.096300	0.186300	0.984300
C1041	C104	0.067200	0.529400	0.056900
H691	H69	0.060900	0.487700	0.040800
C1051	C105	0.084000	0.623700	0.051700
H701	H70	0.088100	0.646300	0.032300
C1061	C106	0.094700	0.684000	0.074940
C1071	C107	0.087900	0.648600	0.103100
H711	H71	0.094600	0.688100	0.119600
C1081	C108	0.071200	0.554900	0.106300
H721	H72	0.067600	0.530000	0.125500
I131	I13	0.195210	0.310300	0.196080
I141	I14	0.336950	0.171930	0.176280
I151	I15	0.923340	0.781180	0.366810
I161	I16	0.984790	0.778620	0.457040
I171	I17	0.516970	0.952310	0.399590
I181	I18	0.449140	0.674950	0.433520
N251	N25	0.239000	0.074400	0.224710
N261	N26	0.263200	0.963800	0.327550
N271	N27	0.214500	0.930100	0.368950
N281	N28	0.177300	0.966500	0.323110
N291	N29	0.386400	0.895000	0.404700
N301	N30	0.035900	0.900300	0.389440
N311	N31	0.212400	0.079400	0.155700
N321	N32	0.134100	0.973000	0.062190
N331	N33	0.098300	0.828000	0.044340
N341	N34	0.135100	0.829300	0.091190
N351	N35	0.062700	0.074300	0.966240
N361	N36	0.059900	0.496400	0.083800
Zn71	Zn7	0.246760	0.157550	0.187800
Zn81	Zn8	0.970200	0.861760	0.407950
Zn91	Zn9	0.450460	0.859040	0.426280
C1091	C109	0.222500	0.953700	0.740800
H731	H73	0.191100	0.948900	0.732400
C1101	C110	0.226400	0.989200	0.768780
H741	H74	0.198400	0.008400	0.779400
C1111	C111	0.272300	0.996100	0.781080
C1121	C112	0.312700	0.973000	0.764600
H751	H75	0.344500	0.980600	0.772300
C1131	C113	0.305300	0.938200	0.736360
H761	H76	0.332800	0.922700	0.724800
C1141	C114	0.278100	0.023700	0.812380
C1151	C115	0.242600	0.059100	0.855430
C1161	C116	0.324300	0.056600	0.851450
C1171	C117	0.198000	0.073300	0.873180
C1181	C118	0.152400	0.060500	0.860050
H771	H77	0.149800	0.041500	0.840200
C1191	C119	0.111600	0.076400	0.876800
H781	H78	0.080700	0.066500	0.868100
C1201	C120	0.157700	0.115800	0.917330
H791	H79	0.159500	0.134800	0.937200
C1211	C121	0.200000	0.100200	0.902200
H801	H80	0.230400	0.107800	0.911600
C1221	C122	0.372600	0.067900	0.864980
C1231	C123	0.377500	0.082900	0.894690
H811	H81	0.349800	0.083700	0.907000
C1241	C124	0.423600	0.096800	0.906150
H821	H82	0.426900	0.104700	0.926700
C1251	C125	0.459100	0.083700	0.860890
H831	H83	0.487300	0.083500	0.849000
C1261	C126	0.414300	0.067300	0.847920
H841	H84	0.412100	0.055800	0.827500
C1271	C127	0.310200	0.873400	0.633970
H851	H85	0.311300	0.804200	0.634300
C1281	C128	0.331800	0.923000	0.611110
H861	H86	0.347600	0.887800	0.596000
C1291	C129	0.330500	0.022900	0.610280
C1301	C130	0.307400	0.071800	0.632500
H871	H87	0.305600	0.140900	0.632500
C1311	C131	0.286600	0.018300	0.655060
H881	H88	0.271100	0.052100	0.670600
C1321	C132	0.354600	0.076500	0.586300
C1331	C133	0.389800	0.077600	0.542110
C1341	C134	0.388800	0.214700	0.569550
C1351	C135	0.449700	0.019200	0.470630
H891	H89	0.469400	0.050900	0.456500
C1361	C136	0.435200	0.070400	0.494500
H901	H90	0.444500	0.136600	0.496900
C1371	C137	0.406800	0.024800	0.515430
C1381	C138	0.394900	0.927300	0.511620
H911	H91	0.376000	0.893600	0.525700
C1391	C139	0.411300	0.880700	0.486860
H921	H92	0.403700	0.813700	0.484300
C1401	C140	0.432800	0.470600	0.556900
H931	H93	0.439100	0.512300	0.540800
C1411	C141	0.416000	0.376300	0.551700
H941	H94	0.411900	0.353700	0.532300
C1421	C142	0.405300	0.316000	0.574940
C1431	C143	0.412100	0.351400	0.603100
H951	H95	0.405400	0.311900	0.619600
C1441	C144	0.428800	0.445100	0.606300
H961	H96	0.432400	0.470000	0.625500
I191	I19	0.304790	0.689700	0.696080
I201	I20	0.163050	0.828070	0.676290
I211	I21	0.576660	0.218820	0.866810
I221	I22	0.515210	0.221380	0.957040
I231	I23	0.983030	0.047690	0.899590
I241	I24	0.050860	0.325050	0.933520
N371	N37	0.261000	0.925600	0.724710
N381	N38	0.236800	0.036200	0.827550
N391	N39	0.285500	0.069900	0.868950
N401	N40	0.322700	0.033500	0.823110
N411	N41	0.113600	0.105000	0.904700
N421	N42	0.464100	0.099700	0.889440
N431	N43	0.287600	0.920600	0.655700
N441	N44	0.365900	0.027000	0.562190
N451	N45	0.401700	0.172000	0.544340
N461	N46	0.364900	0.170700	0.591190
N471	N47	0.437300	0.925700	0.466240
N481	N48	0.440100	0.503600	0.583800
Zn101	Zn10	0.253240	0.842450	0.687800
Zn111	Zn11	0.529800	0.138240	0.907950
Zn121	Zn12	0.049540	0.140960	0.926280
C1451	C145	0.277500	0.453700	0.740800
H971	H97	0.308900	0.448900	0.732400
C1461	C146	0.273600	0.489200	0.768780
H981	H98	0.301600	0.508400	0.779400
C1471	C147	0.227700	0.496100	0.781080
C1481	C148	0.187300	0.473000	0.764600
H991	H99	0.155500	0.480600	0.772300
C1491	C149	0.194700	0.438200	0.736360
H1001	H100	0.167200	0.422700	0.724800
C1501	C150	0.221900	0.523700	0.812380
C1511	C151	0.257400	0.559100	0.855430
C1521	C152	0.175700	0.556600	0.851450
C1531	C153	0.302000	0.573300	0.873180
C1541	C154	0.347600	0.560500	0.860050
H1011	H101	0.350200	0.541500	0.840200
C1551	C155	0.388400	0.576400	0.876800
H1021	H102	0.419300	0.566500	0.868100
C1561	C156	0.342300	0.615800	0.917330
H1031	H103	0.340500	0.634800	0.937200
C1571	C157	0.300000	0.600200	0.902200
H1041	H104	0.269600	0.607800	0.911600
C1581	C158	0.127400	0.567900	0.864980
C1591	C159	0.122500	0.582900	0.894690
H1051	H105	0.150200	0.583700	0.907000
C1601	C160	0.076400	0.596800	0.906150
H1061	H106	0.073100	0.604700	0.926700
C1611	C161	0.040900	0.583700	0.860890
H1071	H107	0.012700	0.583500	0.849000
C1621	C162	0.085700	0.567300	0.847920
H1081	H108	0.087900	0.555800	0.827500
C1631	C163	0.189800	0.373400	0.633970
H1091	H109	0.188700	0.304200	0.634300
C1641	C164	0.168200	0.423000	0.611110
H1101	H110	0.152400	0.387800	0.596000
C1651	C165	0.169500	0.522900	0.610280
C1661	C166	0.192600	0.571800	0.632500
H1111	H111	0.194400	0.640900	0.632500
C1671	C167	0.213400	0.518300	0.655060
H1121	H112	0.228900	0.552100	0.670600
C1681	C168	0.145400	0.576500	0.586300
C1691	C169	0.110200	0.577600	0.542110
C1701	C170	0.111200	0.714700	0.569550
C1711	C171	0.050300	0.519200	0.470630
H1131	H113	0.030600	0.550900	0.456500
C1721	C172	0.064800	0.570400	0.494500
H1141	H114	0.055500	0.636600	0.496900
C1731	C173	0.093200	0.524800	0.515430
C1741	C174	0.105100	0.427300	0.511620
H1151	H115	0.124000	0.393600	0.525700
C1751	C175	0.088700	0.380700	0.486860
H1161	H116	0.096300	0.313700	0.484300
C1761	C176	0.067200	0.970600	0.556900
H1171	H117	0.060900	0.012300	0.540800
C1771	C177	0.084000	0.876300	0.551700
H1181	H118	0.088100	0.853700	0.532300
C1781	C178	0.094700	0.816000	0.574940
C1791	C179	0.087900	0.851400	0.603100
H1191	H119	0.094600	0.811900	0.619600
C1801	C180	0.071200	0.945100	0.606300
H1201	H120	0.067600	0.970000	0.625500
I251	I25	0.195210	0.189700	0.696080
I261	I26	0.336950	0.328070	0.676290
I271	I27	0.923340	0.718820	0.866810
I281	I28	0.984790	0.721380	0.957040
I291	I29	0.516970	0.547690	0.899590
I301	I30	0.449140	0.825050	0.933520
N491	N49	0.239000	0.425600	0.724710
N501	N50	0.263200	0.536200	0.827550
N511	N51	0.214500	0.569900	0.868950
N521	N52	0.177300	0.533500	0.823110
N531	N53	0.386400	0.605000	0.904700
N541	N54	0.035900	0.599700	0.889440
N551	N55	0.212400	0.420600	0.655700
N561	N56	0.134100	0.527000	0.562190
N571	N57	0.098300	0.672000	0.544340
N581	N58	0.135100	0.670700	0.591190
N591	N59	0.062700	0.425700	0.466240
N601	N60	0.059900	0.003600	0.583800
Zn131	Zn13	0.246760	0.342450	0.687800
Zn141	Zn14	0.970200	0.638240	0.907950
Zn151	Zn15	0.450460	0.640960	0.926280
C1811	C181	0.222500	0.546300	0.240800
H1211	H121	0.191100	0.551100	0.232400
C1821	C182	0.226400	0.510800	0.268780
H1221	H122	0.198400	0.491600	0.279400
C1831	C183	0.272300	0.503900	0.281080
C1841	C184	0.312700	0.527000	0.264600
H1231	H123	0.344500	0.519400	0.272300
C1851	C185	0.305300	0.561800	0.236360
H1241	H124	0.332800	0.577300	0.224800
C1861	C186	0.278100	0.476300	0.312380
C1871	C187	0.242600	0.440900	0.355430
C1881	C188	0.324300	0.443400	0.351450
C1891	C189	0.198000	0.426700	0.373180
C1901	C190	0.152400	0.439500	0.360050
H1251	H125	0.149800	0.458500	0.340200
C1911	C191	0.111600	0.423600	0.376800
H1261	H126	0.080700	0.433500	0.368100
C1921	C192	0.157700	0.384200	0.417330
H1271	H127	0.159500	0.365200	0.437200
C1931	C193	0.200000	0.399800	0.402200
H1281	H128	0.230400	0.392200	0.411600
C1941	C194	0.372600	0.432100	0.364980
C1951	C195	0.377500	0.417100	0.394690
H1291	H129	0.349800	0.416300	0.407000
C1961	C196	0.423600	0.403200	0.406150
H1301	H130	0.426900	0.395300	0.426700
C1971	C197	0.459100	0.416300	0.360890
H1311	H131	0.487300	0.416500	0.349000
C1981	C198	0.414300	0.432700	0.347920
H1321	H132	0.412100	0.444200	0.327500
C1991	C199	0.310200	0.626600	0.133970
H1331	H133	0.311300	0.695800	0.134300
C2001	C200	0.331800	0.577000	0.111110
H1341	H134	0.347600	0.612200	0.096000
C2011	C201	0.330500	0.477100	0.110280
C2021	C202	0.307400	0.428200	0.132500
H1351	H135	0.305600	0.359100	0.132500
C2031	C203	0.286600	0.481700	0.155060
H1361	H136	0.271100	0.447900	0.170600
C2041	C204	0.354600	0.423500	0.086300
C2051	C205	0.389800	0.422400	0.042110
C2061	C206	0.388800	0.285300	0.069550
C2071	C207	0.449700	0.480800	0.970630
H1371	H137	0.469400	0.449100	0.956500
C2081	C208	0.435200	0.429600	0.994500
H1381	H138	0.444500	0.363400	0.996900
C2091	C209	0.406800	0.475200	0.015430
C2101	C210	0.394900	0.572700	0.011620
H1391	H139	0.376000	0.606400	0.025700
C2111	C211	0.411300	0.619300	0.986860
H1401	H140	0.403700	0.686300	0.984300
C2121	C212	0.432800	0.029400	0.056900
H1411	H141	0.439100	0.987700	0.040800
C2131	C213	0.416000	0.123700	0.051700
H1421	H142	0.411900	0.146300	0.032300
C2141	C214	0.405300	0.184000	0.074940
C2151	C215	0.412100	0.148600	0.103100
H1431	H143	0.405400	0.188100	0.119600
C2161	C216	0.428800	0.054900	0.106300
H1441	H144	0.432400	0.030000	0.125500
I311	I31	0.304790	0.810300	0.196080
I321	I32	0.163050	0.671930	0.176280
I331	I33	0.576660	0.281180	0.366810
I341	I34	0.515210	0.278620	0.457040
I351	I35	0.983030	0.452310	0.399590
I361	I36	0.050860	0.174950	0.433520
N611	N61	0.261000	0.574400	0.224710
N621	N62	0.236800	0.463800	0.327550
N631	N63	0.285500	0.430100	0.368950
N641	N64	0.322700	0.466500	0.323110
N651	N65	0.113600	0.395000	0.404700
N661	N66	0.464100	0.400300	0.389440
N671	N67	0.287600	0.579400	0.155700
N681	N68	0.365900	0.473000	0.062190
N691	N69	0.401700	0.328000	0.044340
N701	N70	0.364900	0.329300	0.091190
N711	N71	0.437300	0.574300	0.966240
N721	N72	0.440100	0.996400	0.083800
Zn161	Zn16	0.253240	0.657550	0.187800
Zn171	Zn17	0.529800	0.361760	0.407950
Zn181	Zn18	0.049540	0.359040	0.426280
C2171	C217	0.722500	0.953700	0.759200
H1451	H145	0.691100	0.948900	0.767600
C2181	C218	0.726400	0.989200	0.731220
H1461	H146	0.698400	0.008400	0.720600
C2191	C219	0.772300	0.996100	0.718920
C2201	C220	0.812700	0.973000	0.735400
H1471	H147	0.844500	0.980600	0.727700
C2211	C221	0.805300	0.938200	0.763640
H1481	H148	0.832800	0.922700	0.775200
C2221	C222	0.778100	0.023700	0.687620
C2231	C223	0.742600	0.059100	0.644570
C2241	C224	0.824300	0.056600	0.648550
C2251	C225	0.698000	0.073300	0.626820
C2261	C226	0.652400	0.060500	0.639950
H1491	H149	0.649800	0.041500	0.659800
C2271	C227	0.611600	0.076400	0.623200
H1501	H150	0.580700	0.066500	0.631900
C2281	C228	0.657700	0.115800	0.582670
H1511	H151	0.659500	0.134800	0.562800
C2291	C229	0.700000	0.100200	0.597800
H1521	H152	0.730400	0.107800	0.588400
C2301	C230	0.872600	0.067900	0.635020
C2311	C231	0.877500	0.082900	0.605310
H1531	H153	0.849800	0.083700	0.593000
C2321	C232	0.923600	0.096800	0.593850
H1541	H154	0.926900	0.104700	0.573300
C2331	C233	0.959100	0.083700	0.639110
H1551	H155	0.987300	0.083500	0.651000
C2341	C234	0.914300	0.067300	0.652080
H1561	H156	0.912100	0.055800	0.672500
C2351	C235	0.810200	0.873400	0.866030
H1571	H157	0.811300	0.804200	0.865700
C2361	C236	0.831800	0.923000	0.888890
H1581	H158	0.847600	0.887800	0.904000
C2371	C237	0.830500	0.022900	0.889720
C2381	C238	0.807400	0.071800	0.867500
H1591	H159	0.805600	0.140900	0.867500
C2391	C239	0.786600	0.018300	0.844940
H1601	H160	0.771100	0.052100	0.829400
C2401	C240	0.854600	0.076500	0.913700
C2411	C241	0.889800	0.077600	0.957890
C2421	C242	0.888800	0.214700	0.930450
C2431	C243	0.949700	0.019200	0.029370
H1611	H161	0.969400	0.050900	0.043500
C2441	C244	0.935200	0.070400	0.005500
H1621	H162	0.944500	0.136600	0.003100
C2451	C245	0.906800	0.024800	0.984570
C2461	C246	0.894900	0.927300	0.988380
H1631	H163	0.876000	0.893600	0.974300
C2471	C247	0.911300	0.880700	0.013140
H1641	H164	0.903700	0.813700	0.015700
C2481	C248	0.932800	0.470600	0.943100
H1651	H165	0.939100	0.512300	0.959200
C2491	C249	0.916000	0.376300	0.948300
H1661	H166	0.911900	0.353700	0.967700
C2501	C250	0.905300	0.316000	0.925060
C2511	C251	0.912100	0.351400	0.896900
H1671	H167	0.905400	0.311900	0.880400
C2521	C252	0.928800	0.445100	0.893700
H1681	H168	0.932400	0.470000	0.874500
I371	I37	0.804790	0.689700	0.803920
I381	I38	0.663050	0.828070	0.823710
I391	I39	0.076660	0.218820	0.633190
I401	I40	0.015210	0.221380	0.542960
I411	I41	0.483030	0.047690	0.600410
I421	I42	0.550860	0.325050	0.566480
N731	N73	0.761000	0.925600	0.775290
N741	N74	0.736800	0.036200	0.672450
N751	N75	0.785500	0.069900	0.631050
N761	N76	0.822700	0.033500	0.676890
N771	N77	0.613600	0.105000	0.595300
N781	N78	0.964100	0.099700	0.610560
N791	N79	0.787600	0.920600	0.844300
N801	N80	0.865900	0.027000	0.937810
N811	N81	0.901700	0.172000	0.955660
N821	N82	0.864900	0.170700	0.908810
N831	N83	0.937300	0.925700	0.033760
N841	N84	0.940100	0.503600	0.916200
Zn191	Zn19	0.753240	0.842450	0.812200
Zn201	Zn20	0.029800	0.138240	0.592050
Zn211	Zn21	0.549540	0.140960	0.573720
C2531	C253	0.777500	0.046300	0.259200
H1691	H169	0.808900	0.051100	0.267600
C2541	C254	0.773600	0.010800	0.231220
H1701	H170	0.801600	0.991600	0.220600
C2551	C255	0.727700	0.003900	0.218920
C2561	C256	0.687300	0.027000	0.235400
H1711	H171	0.655500	0.019400	0.227700
C2571	C257	0.694700	0.061800	0.263640
H1721	H172	0.667200	0.077300	0.275200
C2581	C258	0.721900	0.976300	0.187620
C2591	C259	0.757400	0.940900	0.144570
C2601	C260	0.675700	0.943400	0.148550
C2611	C261	0.802000	0.926700	0.126820
C2621	C262	0.847600	0.939500	0.139950
H1731	H173	0.850200	0.958500	0.159800
C2631	C263	0.888400	0.923600	0.123200
H1741	H174	0.919300	0.933500	0.131900
C2641	C264	0.842300	0.884200	0.082670
H1751	H175	0.840500	0.865200	0.062800
C2651	C265	0.800000	0.899800	0.097800
H1761	H176	0.769600	0.892200	0.088400
C2661	C266	0.627400	0.932100	0.135020
C2671	C267	0.622500	0.917100	0.105310
H1771	H177	0.650200	0.916300	0.093000
C2681	C268	0.576400	0.903200	0.093850
H1781	H178	0.573100	0.895300	0.073300
C2691	C269	0.540900	0.916300	0.139110
H1791	H179	0.512700	0.916500	0.151000
C2701	C270	0.585700	0.932700	0.152080
H1801	H180	0.587900	0.944200	0.172500
C2711	C271	0.689800	0.126600	0.366030
H1811	H181	0.688700	0.195800	0.365700
C2721	C272	0.668200	0.077000	0.388890
H1821	H182	0.652400	0.112200	0.404000
C2731	C273	0.669500	0.977100	0.389720
C2741	C274	0.692600	0.928200	0.367500
H1831	H183	0.694400	0.859100	0.367500
C2751	C275	0.713400	0.981700	0.344940
H1841	H184	0.728900	0.947900	0.329400
C2761	C276	0.645400	0.923500	0.413700
C2771	C277	0.610200	0.922400	0.457890
C2781	C278	0.611200	0.785300	0.430450
C2791	C279	0.550300	0.980800	0.529370
H1851	H185	0.530600	0.949100	0.543500
C2801	C280	0.564800	0.929600	0.505500
H1861	H186	0.555500	0.863400	0.503100
C2811	C281	0.593200	0.975200	0.484570
C2821	C282	0.605100	0.072700	0.488380
H1871	H187	0.624000	0.106400	0.474300
C2831	C283	0.588700	0.119300	0.513140
H1881	H188	0.596300	0.186300	0.515700
C2841	C284	0.567200	0.529400	0.443100
H1891	H189	0.560900	0.487700	0.459200
C2851	C285	0.584000	0.623700	0.448300
H1901	H190	0.588100	0.646300	0.467700
C2861	C286	0.594700	0.684000	0.425060
C2871	C287	0.587900	0.648600	0.396900
H1911	H191	0.594600	0.688100	0.380400
C2881	C288	0.571200	0.554900	0.393700
H1921	H192	0.567600	0.530000	0.374500
I431	I43	0.695210	0.310300	0.303920
I441	I44	0.836950	0.171930	0.323710
I451	I45	0.423340	0.781180	0.133190
I461	I46	0.484790	0.778620	0.042960
I471	I47	0.016970	0.952310	0.100410
I481	I48	0.949140	0.674950	0.066480
N851	N85	0.739000	0.074400	0.275290
N861	N86	0.763200	0.963800	0.172450
N871	N87	0.714500	0.930100	0.131050
N881	N88	0.677300	0.966500	0.176890
N891	N89	0.886400	0.895000	0.095300
N901	N90	0.535900	0.900300	0.110560
N911	N91	0.712400	0.079400	0.344300
N921	N92	0.634100	0.973000	0.437810
N931	N93	0.598300	0.828000	0.455660
N941	N94	0.635100	0.829300	0.408810
N951	N95	0.562700	0.074300	0.533760
N961	N96	0.559900	0.496400	0.416200
Zn221	Zn22	0.746760	0.157550	0.312200
Zn231	Zn23	0.470200	0.861760	0.092050
Zn241	Zn24	0.950460	0.859040	0.073720
