data_XAPGOK_clean_PM
_symmetry_space_group_name_H-M	'P1'
_cell_length_a	6.843000
_cell_length_b	10.978000
_cell_length_c	12.687000
_cell_angle_alpha	90.000000
_cell_angle_beta	90.000000
_cell_angle_gamma	90.000000
_symmetry_Int_Tables_number 1

loop_
_symmetry_equiv_pos_as_xyz
'x,y,z'

loop_
_atom_site_label
_atom_site_type_symbol
_atom_site_fract_x
_atom_site_fract_y
_atom_site_fract_z
N11	N1	0.984000	0.890200	0.791800
N21	N2	0.865200	0.910700	0.532500
C11	C1	0.986500	0.924100	0.706700
C21	C2	0.992500	0.964100	0.598400
C31	C3	0.873900	0.947800	0.432800
H11	H1	0.781000	0.912100	0.378700
N31	N3	0.016000	0.390200	0.208200
N41	N4	0.134800	0.410700	0.467500
C41	C4	0.013500	0.424100	0.293300
C51	C5	0.007500	0.464100	0.401600
C61	C6	0.126100	0.447800	0.567200
H21	H2	0.219000	0.412100	0.621300
N51	N5	0.016000	0.109800	0.208200
N61	N6	0.134800	0.089300	0.467500
C71	C7	0.013500	0.075900	0.293300
C81	C8	0.007500	0.035900	0.401600
C91	C9	0.126100	0.052200	0.567200
H31	H3	0.219000	0.087900	0.621300
N71	N7	0.984000	0.609800	0.791800
N81	N8	0.865200	0.589300	0.532500
C101	C10	0.986500	0.575900	0.706700
C111	C11	0.992500	0.535900	0.598400
C121	C12	0.873900	0.552200	0.432800
H41	H4	0.781000	0.587900	0.378700
Ag11	Ag1	0.872130	0.250000	0.083280
Ag21	Ag2	0.127870	0.750000	0.916720
N91	N9	0.516000	0.109800	0.291800
N101	N10	0.634800	0.089300	0.032500
C131	C13	0.513500	0.075900	0.206700
C141	C14	0.507500	0.035900	0.098400
C151	C15	0.626100	0.052200	0.932800
H51	H5	0.719000	0.087900	0.878700
N111	N11	0.484000	0.609800	0.708200
N121	N12	0.365200	0.589300	0.967500
C161	C16	0.486500	0.575900	0.793300
C171	C17	0.492500	0.535900	0.901600
C181	C18	0.373900	0.552200	0.067200
H61	H6	0.281000	0.587900	0.121300
N131	N13	0.484000	0.890200	0.708200
N141	N14	0.365200	0.910700	0.967500
C191	C19	0.486500	0.924100	0.793300
C201	C20	0.492500	0.964100	0.901600
C211	C21	0.373900	0.947800	0.067200
H71	H7	0.281000	0.912100	0.121300
N151	N15	0.516000	0.390200	0.291800
N161	N16	0.634800	0.410700	0.032500
C221	C22	0.513500	0.424100	0.206700
C231	C23	0.507500	0.464100	0.098400
C241	C24	0.626100	0.447800	0.932800
H81	H8	0.719000	0.412100	0.878700
Ag31	Ag3	0.627870	0.750000	0.583280
Ag41	Ag4	0.372130	0.250000	0.416720
