data_XAPGUQ_clean_PM
_symmetry_space_group_name_H-M	'P1'
_cell_length_a	7.434000
_cell_length_b	11.927000
_cell_length_c	13.255000
_cell_angle_alpha	90.000000
_cell_angle_beta	90.000000
_cell_angle_gamma	90.000000
_symmetry_Int_Tables_number 1

loop_
_symmetry_equiv_pos_as_xyz
'x,y,z'

loop_
_atom_site_label
_atom_site_type_symbol
_atom_site_fract_x
_atom_site_fract_y
_atom_site_fract_z
N11	N1	0.909700	0.407500	0.040600
C11	C1	0.863000	0.449100	0.952000
C21	C2	0.046100	0.457900	0.087100
N21	N2	0.856000	0.877400	0.741200
C31	C3	0.900900	0.913800	0.815000
N31	N3	0.090300	0.907500	0.959400
C41	C4	0.137000	0.949100	0.048000
C51	C5	0.953900	0.957900	0.912900
N41	N4	0.144000	0.377400	0.258800
C61	C6	0.099100	0.413800	0.185000
N51	N5	0.090300	0.592500	0.959400
C71	C7	0.137000	0.550900	0.048000
C81	C8	0.953900	0.542100	0.912900
N61	N6	0.144000	0.122600	0.258800
C91	C9	0.099100	0.086200	0.185000
N71	N7	0.909700	0.092500	0.040600
C101	C10	0.863000	0.050900	0.952000
C111	C11	0.046100	0.042100	0.087100
N81	N8	0.856000	0.622600	0.741200
C121	C12	0.900900	0.586200	0.815000
Ag11	Ag1	0.766170	0.750000	0.609990
Ag21	Ag2	0.233830	0.250000	0.390010
N91	N9	0.644000	0.122600	0.241200
C131	C13	0.599100	0.086200	0.315000
N101	N10	0.590300	0.592500	0.540600
C141	C14	0.637000	0.550900	0.452000
C151	C15	0.453900	0.542100	0.587100
N111	N11	0.356000	0.622600	0.758800
C161	C16	0.400900	0.586200	0.685000
N121	N12	0.409700	0.092500	0.459400
C171	C17	0.363000	0.050900	0.548000
C181	C18	0.546100	0.042100	0.412900
N131	N13	0.356000	0.877400	0.758800
C191	C19	0.400900	0.913800	0.685000
N141	N14	0.409700	0.407500	0.459400
C201	C20	0.363000	0.449100	0.548000
C211	C21	0.546100	0.457900	0.412900
N151	N15	0.644000	0.377400	0.241200
C221	C22	0.599100	0.413800	0.315000
N161	N16	0.590300	0.907500	0.540600
C231	C23	0.637000	0.949100	0.452000
C241	C24	0.453900	0.957900	0.587100
Ag31	Ag3	0.733830	0.250000	0.109990
Ag41	Ag4	0.266170	0.750000	0.890010
