data_XAPGED_clean_PM
_symmetry_space_group_name_H-M	'P1'
_cell_length_a	27.008300
_cell_length_b	27.012100
_cell_length_c	27.816100
_cell_angle_alpha	90.000000
_cell_angle_beta	90.000000
_cell_angle_gamma	90.000000
_symmetry_Int_Tables_number 1

loop_
_symmetry_equiv_pos_as_xyz
'x,y,z'

loop_
_atom_site_label
_atom_site_type_symbol
_atom_site_fract_x
_atom_site_fract_y
_atom_site_fract_z
Mo11	Mo1	0.899290	0.462970	0.033220
Mo21	Mo2	0.906810	0.514170	0.112790
Mo31	Mo3	0.940480	0.636200	0.115620
Mo41	Mo4	0.964580	0.685760	0.014600
Mo51	Mo5	0.953150	0.610270	0.915610
Mo61	Mo6	0.925510	0.517190	0.920960
Mo71	Mo7	0.807070	0.480150	0.949050
Mo81	Mo8	0.728910	0.565810	0.972660
Mo91	Mo9	0.774650	0.683500	0.964880
Mo101	Mo10	0.864910	0.706810	0.942200
Mo111	Mo11	0.746180	0.629380	0.078550
Mo121	Mo12	0.818310	0.610740	0.137880
Zn11	Zn1	0.994720	0.559480	0.027010
Zn21	Zn2	0.852630	0.717090	0.070450
Zn31	Zn3	0.821630	0.590150	0.886770
Zn41	Zn4	0.779000	0.501550	0.069990
O11	O1	0.741600	0.447900	0.098920
O21	O2	0.771960	0.474770	0.168840
O31	O3	0.663830	0.280680	0.098110
O41	O4	0.606480	0.268610	0.153800
O51	O5	0.693300	0.407550	0.318630
O61	O6	0.632780	0.351210	0.311800
O71	O7	0.948340	0.511240	0.055150
O81	O8	0.849570	0.485740	0.079660
O91	O9	0.936630	0.464050	0.970680
O101	O10	0.838670	0.443400	0.995000
O111	O11	0.949300	0.571370	0.130830
O121	O12	0.852750	0.544990	0.156830
O131	O13	0.882920	0.644160	0.149530
O141	O14	0.918440	0.689200	0.070380
O151	O15	0.977190	0.624260	0.053740
O161	O16	0.989140	0.653240	0.962480
O171	O17	0.923160	0.727200	0.981470
O181	O18	0.970740	0.557120	0.960000
O191	O19	0.892970	0.576090	0.893860
O201	O20	0.915100	0.673940	0.895530
O211	O21	0.858920	0.485360	0.907800
O221	O22	0.763680	0.507940	0.001950
O231	O23	0.780920	0.545260	0.924680
O241	O24	0.730540	0.627210	0.945200
O251	O25	0.709760	0.585810	0.032660
O261	O26	0.818970	0.657540	0.915440
O271	O27	0.827820	0.714800	0.002610
O281	O28	0.734940	0.684320	0.028370
O291	O29	0.774330	0.567000	0.101330
O301	O30	0.804150	0.668530	0.097360
C11	C1	0.714480	0.407760	0.169520
C21	C2	0.692610	0.369820	0.142810
H11	H1	0.698300	0.367900	0.109200
C31	C3	0.662600	0.334870	0.165000
C41	C4	0.652440	0.339300	0.213940
H21	H2	0.629600	0.317300	0.228700
C51	C5	0.675600	0.375910	0.241460
C61	C6	0.707380	0.409240	0.219230
H31	H3	0.724400	0.433200	0.238000
C71	C7	0.745610	0.446650	0.145370
C81	C8	0.641100	0.291640	0.137970
C91	C9	0.665710	0.377970	0.294590
Mo131	Mo13	0.600710	0.537030	0.533220
Mo141	Mo14	0.593190	0.485830	0.612790
Mo151	Mo15	0.559520	0.363800	0.615620
Mo161	Mo16	0.535420	0.314240	0.514600
Mo171	Mo17	0.546850	0.389730	0.415610
Mo181	Mo18	0.574490	0.482810	0.420960
Mo191	Mo19	0.692930	0.519850	0.449050
Mo201	Mo20	0.771090	0.434190	0.472660
Mo211	Mo21	0.725350	0.316500	0.464880
Mo221	Mo22	0.635090	0.293190	0.442200
Mo231	Mo23	0.753820	0.370620	0.578550
Mo241	Mo24	0.681690	0.389260	0.637880
Zn51	Zn5	0.505280	0.440520	0.527010
Zn61	Zn6	0.647370	0.282910	0.570450
Zn71	Zn7	0.678370	0.409850	0.386770
Zn81	Zn8	0.721000	0.498450	0.569990
O311	O31	0.758400	0.552100	0.598920
O321	O32	0.728040	0.525230	0.668840
O331	O33	0.836170	0.719320	0.598110
O341	O34	0.893520	0.731390	0.653800
O351	O35	0.806700	0.592450	0.818630
O361	O36	0.867220	0.648790	0.811800
O371	O37	0.551660	0.488760	0.555150
O381	O38	0.650430	0.514260	0.579660
O391	O39	0.563370	0.535950	0.470680
O401	O40	0.661330	0.556600	0.495000
O411	O41	0.550700	0.428630	0.630830
O421	O42	0.647250	0.455010	0.656830
O431	O43	0.617080	0.355840	0.649530
O441	O44	0.581560	0.310800	0.570380
O451	O45	0.522810	0.375740	0.553740
O461	O46	0.510860	0.346760	0.462480
O471	O47	0.576840	0.272800	0.481470
O481	O48	0.529260	0.442880	0.460000
O491	O49	0.607030	0.423910	0.393860
O501	O50	0.584900	0.326060	0.395530
O511	O51	0.641080	0.514640	0.407800
O521	O52	0.736320	0.492060	0.501950
O531	O53	0.719080	0.454740	0.424680
O541	O54	0.769460	0.372790	0.445200
O551	O55	0.790240	0.414190	0.532660
O561	O56	0.681030	0.342460	0.415440
O571	O57	0.672180	0.285200	0.502610
O581	O58	0.765060	0.315680	0.528370
O591	O59	0.725670	0.433000	0.601330
O601	O60	0.695850	0.331470	0.597360
C101	C10	0.785520	0.592240	0.669520
C111	C11	0.807390	0.630180	0.642810
H41	H4	0.801700	0.632100	0.609200
C121	C12	0.837400	0.665130	0.665000
C131	C13	0.847560	0.660700	0.713940
H51	H5	0.870400	0.682700	0.728700
C141	C14	0.824400	0.624090	0.741460
C151	C15	0.792620	0.590760	0.719230
H61	H6	0.775600	0.566800	0.738000
C161	C16	0.754390	0.553350	0.645370
C171	C17	0.858900	0.708360	0.637970
C181	C18	0.834290	0.622030	0.794590
Mo251	Mo25	0.100710	0.962970	0.466780
Mo261	Mo26	0.093190	0.014170	0.387210
Mo271	Mo27	0.059520	0.136200	0.384380
Mo281	Mo28	0.035420	0.185760	0.485400
Mo291	Mo29	0.046850	0.110270	0.584390
Mo301	Mo30	0.074490	0.017190	0.579040
Mo311	Mo31	0.192930	0.980150	0.550950
Mo321	Mo32	0.271090	0.065810	0.527340
Mo331	Mo33	0.225350	0.183500	0.535120
Mo341	Mo34	0.135090	0.206810	0.557800
Mo351	Mo35	0.253820	0.129380	0.421450
Mo361	Mo36	0.181690	0.110740	0.362120
Zn91	Zn9	0.005280	0.059480	0.472990
Zn101	Zn10	0.147370	0.217090	0.429550
Zn111	Zn11	0.178370	0.090150	0.613230
Zn121	Zn12	0.221000	0.001550	0.430010
O611	O61	0.258400	0.947900	0.401080
O621	O62	0.228040	0.974770	0.331160
O631	O63	0.336170	0.780680	0.401890
O641	O64	0.393520	0.768610	0.346200
O651	O65	0.306700	0.907550	0.181370
O661	O66	0.367220	0.851210	0.188200
O671	O67	0.051660	0.011240	0.444850
O681	O68	0.150430	0.985740	0.420340
O691	O69	0.063370	0.964050	0.529320
O701	O70	0.161330	0.943400	0.505000
O711	O71	0.050700	0.071370	0.369170
O721	O72	0.147250	0.044990	0.343170
O731	O73	0.117080	0.144160	0.350470
O741	O74	0.081560	0.189200	0.429620
O751	O75	0.022810	0.124260	0.446260
O761	O76	0.010860	0.153240	0.537520
O771	O77	0.076840	0.227200	0.518530
O781	O78	0.029260	0.057120	0.540000
O791	O79	0.107030	0.076090	0.606140
O801	O80	0.084900	0.173940	0.604470
O811	O81	0.141080	0.985360	0.592200
O821	O82	0.236320	0.007940	0.498050
O831	O83	0.219080	0.045260	0.575320
O841	O84	0.269460	0.127210	0.554800
O851	O85	0.290240	0.085810	0.467340
O861	O86	0.181030	0.157540	0.584560
O871	O87	0.172180	0.214800	0.497390
O881	O88	0.265060	0.184320	0.471630
O891	O89	0.225670	0.067000	0.398670
O901	O90	0.195850	0.168530	0.402640
C191	C19	0.285520	0.907760	0.330480
C201	C20	0.307390	0.869820	0.357190
H71	H7	0.301700	0.867900	0.390800
C211	C21	0.337400	0.834870	0.335000
C221	C22	0.347560	0.839300	0.286060
H81	H8	0.370400	0.817300	0.271300
C231	C23	0.324400	0.875910	0.258540
C241	C24	0.292620	0.909240	0.280770
H91	H9	0.275600	0.933200	0.262000
C251	C25	0.254390	0.946650	0.354630
C261	C26	0.358900	0.791640	0.362030
C271	C27	0.334290	0.877970	0.205410
Mo371	Mo37	0.399290	0.037030	0.966780
Mo381	Mo38	0.406810	0.985830	0.887210
Mo391	Mo39	0.440480	0.863800	0.884380
Mo401	Mo40	0.464580	0.814240	0.985400
Mo411	Mo41	0.453150	0.889730	0.084390
Mo421	Mo42	0.425510	0.982810	0.079040
Mo431	Mo43	0.307070	0.019850	0.050950
Mo441	Mo44	0.228910	0.934190	0.027340
Mo451	Mo45	0.274650	0.816500	0.035120
Mo461	Mo46	0.364910	0.793190	0.057800
Mo471	Mo47	0.246180	0.870620	0.921450
Mo481	Mo48	0.318310	0.889260	0.862120
Zn131	Zn13	0.494720	0.940520	0.972990
Zn141	Zn14	0.352630	0.782910	0.929550
Zn151	Zn15	0.321630	0.909850	0.113230
Zn161	Zn16	0.279000	0.998450	0.930010
O911	O91	0.241600	0.052100	0.901080
O921	O92	0.271960	0.025230	0.831160
O931	O93	0.163830	0.219320	0.901890
O941	O94	0.106480	0.231390	0.846200
O951	O95	0.193300	0.092450	0.681370
O961	O96	0.132780	0.148790	0.688200
O971	O97	0.448340	0.988760	0.944850
O981	O98	0.349570	0.014260	0.920340
O991	O99	0.436630	0.035950	0.029320
O1001	O100	0.338670	0.056600	0.005000
O1011	O101	0.449300	0.928630	0.869170
O1021	O102	0.352750	0.955010	0.843170
O1031	O103	0.382920	0.855840	0.850470
O1041	O104	0.418440	0.810800	0.929620
O1051	O105	0.477190	0.875740	0.946260
O1061	O106	0.489140	0.846760	0.037520
O1071	O107	0.423160	0.772800	0.018530
O1081	O108	0.470740	0.942880	0.040000
O1091	O109	0.392970	0.923910	0.106140
O1101	O110	0.415100	0.826060	0.104470
O1111	O111	0.358920	0.014640	0.092200
O1121	O112	0.263680	0.992060	0.998050
O1131	O113	0.280920	0.954740	0.075320
O1141	O114	0.230540	0.872790	0.054800
O1151	O115	0.209760	0.914190	0.967340
O1161	O116	0.318970	0.842460	0.084560
O1171	O117	0.327820	0.785200	0.997390
O1181	O118	0.234940	0.815680	0.971630
O1191	O119	0.274330	0.933000	0.898670
O1201	O120	0.304150	0.831470	0.902640
C281	C28	0.214480	0.092240	0.830480
C291	C29	0.192610	0.130180	0.857190
H101	H10	0.198300	0.132100	0.890800
C301	C30	0.162600	0.165130	0.835000
C311	C31	0.152440	0.160700	0.786060
H111	H11	0.129600	0.182700	0.771300
C321	C32	0.175600	0.124090	0.758540
C331	C33	0.207380	0.090760	0.780770
H121	H12	0.224400	0.066800	0.762000
C341	C34	0.245610	0.053350	0.854630
C351	C35	0.141100	0.208360	0.862030
C361	C36	0.165710	0.122030	0.705410
Mo491	Mo49	0.100710	0.537030	0.966780
Mo501	Mo50	0.093190	0.485830	0.887210
Mo511	Mo51	0.059520	0.363800	0.884380
Mo521	Mo52	0.035420	0.314240	0.985400
Mo531	Mo53	0.046850	0.389730	0.084390
Mo541	Mo54	0.074490	0.482810	0.079040
Mo551	Mo55	0.192930	0.519850	0.050950
Mo561	Mo56	0.271090	0.434190	0.027340
Mo571	Mo57	0.225350	0.316500	0.035120
Mo581	Mo58	0.135090	0.293190	0.057800
Mo591	Mo59	0.253820	0.370620	0.921450
Mo601	Mo60	0.181690	0.389260	0.862120
Zn171	Zn17	0.005280	0.440520	0.972990
Zn181	Zn18	0.147370	0.282910	0.929550
Zn191	Zn19	0.178370	0.409850	0.113230
Zn201	Zn20	0.221000	0.498450	0.930010
O1211	O121	0.258400	0.552100	0.901080
O1221	O122	0.228040	0.525230	0.831160
O1231	O123	0.336170	0.719320	0.901890
O1241	O124	0.393520	0.731390	0.846200
O1251	O125	0.306700	0.592450	0.681370
O1261	O126	0.367220	0.648790	0.688200
O1271	O127	0.051660	0.488760	0.944850
O1281	O128	0.150430	0.514260	0.920340
O1291	O129	0.063370	0.535950	0.029320
O1301	O130	0.161330	0.556600	0.005000
O1311	O131	0.050700	0.428630	0.869170
O1321	O132	0.147250	0.455010	0.843170
O1331	O133	0.117080	0.355840	0.850470
O1341	O134	0.081560	0.310800	0.929620
O1351	O135	0.022810	0.375740	0.946260
O1361	O136	0.010860	0.346760	0.037520
O1371	O137	0.076840	0.272800	0.018530
O1381	O138	0.029260	0.442880	0.040000
O1391	O139	0.107030	0.423910	0.106140
O1401	O140	0.084900	0.326060	0.104470
O1411	O141	0.141080	0.514640	0.092200
O1421	O142	0.236320	0.492060	0.998050
O1431	O143	0.219080	0.454740	0.075320
O1441	O144	0.269460	0.372790	0.054800
O1451	O145	0.290240	0.414190	0.967340
O1461	O146	0.181030	0.342460	0.084560
O1471	O147	0.172180	0.285200	0.997390
O1481	O148	0.265060	0.315680	0.971630
O1491	O149	0.225670	0.433000	0.898670
O1501	O150	0.195850	0.331470	0.902640
C371	C37	0.285520	0.592240	0.830480
C381	C38	0.307390	0.630180	0.857190
H131	H13	0.301700	0.632100	0.890800
C391	C39	0.337400	0.665130	0.835000
C401	C40	0.347560	0.660700	0.786060
H141	H14	0.370400	0.682700	0.771300
C411	C41	0.324400	0.624090	0.758540
C421	C42	0.292620	0.590760	0.780770
H151	H15	0.275600	0.566800	0.762000
C431	C43	0.254390	0.553350	0.854630
C441	C44	0.358900	0.708360	0.862030
C451	C45	0.334290	0.622030	0.705410
Mo611	Mo61	0.399290	0.462970	0.466780
Mo621	Mo62	0.406810	0.514170	0.387210
Mo631	Mo63	0.440480	0.636200	0.384380
Mo641	Mo64	0.464580	0.685760	0.485400
Mo651	Mo65	0.453150	0.610270	0.584390
Mo661	Mo66	0.425510	0.517190	0.579040
Mo671	Mo67	0.307070	0.480150	0.550950
Mo681	Mo68	0.228910	0.565810	0.527340
Mo691	Mo69	0.274650	0.683500	0.535120
Mo701	Mo70	0.364910	0.706810	0.557800
Mo711	Mo71	0.246180	0.629380	0.421450
Mo721	Mo72	0.318310	0.610740	0.362120
Zn211	Zn21	0.494720	0.559480	0.472990
Zn221	Zn22	0.352630	0.717090	0.429550
Zn231	Zn23	0.321630	0.590150	0.613230
Zn241	Zn24	0.279000	0.501550	0.430010
O1511	O151	0.241600	0.447900	0.401080
O1521	O152	0.271960	0.474770	0.331160
O1531	O153	0.163830	0.280680	0.401890
O1541	O154	0.106480	0.268610	0.346200
O1551	O155	0.193300	0.407550	0.181370
O1561	O156	0.132780	0.351210	0.188200
O1571	O157	0.448340	0.511240	0.444850
O1581	O158	0.349570	0.485740	0.420340
O1591	O159	0.436630	0.464050	0.529320
O1601	O160	0.338670	0.443400	0.505000
O1611	O161	0.449300	0.571370	0.369170
O1621	O162	0.352750	0.544990	0.343170
O1631	O163	0.382920	0.644160	0.350470
O1641	O164	0.418440	0.689200	0.429620
O1651	O165	0.477190	0.624260	0.446260
O1661	O166	0.489140	0.653240	0.537520
O1671	O167	0.423160	0.727200	0.518530
O1681	O168	0.470740	0.557120	0.540000
O1691	O169	0.392970	0.576090	0.606140
O1701	O170	0.415100	0.673940	0.604470
O1711	O171	0.358920	0.485360	0.592200
O1721	O172	0.263680	0.507940	0.498050
O1731	O173	0.280920	0.545260	0.575320
O1741	O174	0.230540	0.627210	0.554800
O1751	O175	0.209760	0.585810	0.467340
O1761	O176	0.318970	0.657540	0.584560
O1771	O177	0.327820	0.714800	0.497390
O1781	O178	0.234940	0.684320	0.471630
O1791	O179	0.274330	0.567000	0.398670
O1801	O180	0.304150	0.668530	0.402640
C461	C46	0.214480	0.407760	0.330480
C471	C47	0.192610	0.369820	0.357190
H161	H16	0.198300	0.367900	0.390800
C481	C48	0.162600	0.334870	0.335000
C491	C49	0.152440	0.339300	0.286060
H171	H17	0.129600	0.317300	0.271300
C501	C50	0.175600	0.375910	0.258540
C511	C51	0.207380	0.409240	0.280770
H181	H18	0.224400	0.433200	0.262000
C521	C52	0.245610	0.446650	0.354630
C531	C53	0.141100	0.291640	0.362030
C541	C54	0.165710	0.377970	0.205410
Mo731	Mo73	0.899290	0.037030	0.533220
Mo741	Mo74	0.906810	0.985830	0.612790
Mo751	Mo75	0.940480	0.863800	0.615620
Mo761	Mo76	0.964580	0.814240	0.514600
Mo771	Mo77	0.953150	0.889730	0.415610
Mo781	Mo78	0.925510	0.982810	0.420960
Mo791	Mo79	0.807070	0.019850	0.449050
Mo801	Mo80	0.728910	0.934190	0.472660
Mo811	Mo81	0.774650	0.816500	0.464880
Mo821	Mo82	0.864910	0.793190	0.442200
Mo831	Mo83	0.746180	0.870620	0.578550
Mo841	Mo84	0.818310	0.889260	0.637880
Zn251	Zn25	0.994720	0.940520	0.527010
Zn261	Zn26	0.852630	0.782910	0.570450
Zn271	Zn27	0.821630	0.909850	0.386770
Zn281	Zn28	0.779000	0.998450	0.569990
O1811	O181	0.741600	0.052100	0.598920
O1821	O182	0.771960	0.025230	0.668840
O1831	O183	0.663830	0.219320	0.598110
O1841	O184	0.606480	0.231390	0.653800
O1851	O185	0.693300	0.092450	0.818630
O1861	O186	0.632780	0.148790	0.811800
O1871	O187	0.948340	0.988760	0.555150
O1881	O188	0.849570	0.014260	0.579660
O1891	O189	0.936630	0.035950	0.470680
O1901	O190	0.838670	0.056600	0.495000
O1911	O191	0.949300	0.928630	0.630830
O1921	O192	0.852750	0.955010	0.656830
O1931	O193	0.882920	0.855840	0.649530
O1941	O194	0.918440	0.810800	0.570380
O1951	O195	0.977190	0.875740	0.553740
O1961	O196	0.989140	0.846760	0.462480
O1971	O197	0.923160	0.772800	0.481470
O1981	O198	0.970740	0.942880	0.460000
O1991	O199	0.892970	0.923910	0.393860
O2001	O200	0.915100	0.826060	0.395530
O2011	O201	0.858920	0.014640	0.407800
O2021	O202	0.763680	0.992060	0.501950
O2031	O203	0.780920	0.954740	0.424680
O2041	O204	0.730540	0.872790	0.445200
O2051	O205	0.709760	0.914190	0.532660
O2061	O206	0.818970	0.842460	0.415440
O2071	O207	0.827820	0.785200	0.502610
O2081	O208	0.734940	0.815680	0.528370
O2091	O209	0.774330	0.933000	0.601330
O2101	O210	0.804150	0.831470	0.597360
C551	C55	0.714480	0.092240	0.669520
C561	C56	0.692610	0.130180	0.642810
H191	H19	0.698300	0.132100	0.609200
C571	C57	0.662600	0.165130	0.665000
C581	C58	0.652440	0.160700	0.713940
H201	H20	0.629600	0.182700	0.728700
C591	C59	0.675600	0.124090	0.741460
C601	C60	0.707380	0.090760	0.719230
H211	H21	0.724400	0.066800	0.738000
C611	C61	0.745610	0.053350	0.645370
C621	C62	0.641100	0.208360	0.637970
C631	C63	0.665710	0.122030	0.794590
Mo851	Mo85	0.600710	0.962970	0.033220
Mo861	Mo86	0.593190	0.014170	0.112790
Mo871	Mo87	0.559520	0.136200	0.115620
Mo881	Mo88	0.535420	0.185760	0.014600
Mo891	Mo89	0.546850	0.110270	0.915610
Mo901	Mo90	0.574490	0.017190	0.920960
Mo911	Mo91	0.692930	0.980150	0.949050
Mo921	Mo92	0.771090	0.065810	0.972660
Mo931	Mo93	0.725350	0.183500	0.964880
Mo941	Mo94	0.635090	0.206810	0.942200
Mo951	Mo95	0.753820	0.129380	0.078550
Mo961	Mo96	0.681690	0.110740	0.137880
Zn291	Zn29	0.505280	0.059480	0.027010
Zn301	Zn30	0.647370	0.217090	0.070450
Zn311	Zn31	0.678370	0.090150	0.886770
Zn321	Zn32	0.721000	0.001550	0.069990
O2111	O211	0.758400	0.947900	0.098920
O2121	O212	0.728040	0.974770	0.168840
O2131	O213	0.836170	0.780680	0.098110
O2141	O214	0.893520	0.768610	0.153800
O2151	O215	0.806700	0.907550	0.318630
O2161	O216	0.867220	0.851210	0.311800
O2171	O217	0.551660	0.011240	0.055150
O2181	O218	0.650430	0.985740	0.079660
O2191	O219	0.563370	0.964050	0.970680
O2201	O220	0.661330	0.943400	0.995000
O2211	O221	0.550700	0.071370	0.130830
O2221	O222	0.647250	0.044990	0.156830
O2231	O223	0.617080	0.144160	0.149530
O2241	O224	0.581560	0.189200	0.070380
O2251	O225	0.522810	0.124260	0.053740
O2261	O226	0.510860	0.153240	0.962480
O2271	O227	0.576840	0.227200	0.981470
O2281	O228	0.529260	0.057120	0.960000
O2291	O229	0.607030	0.076090	0.893860
O2301	O230	0.584900	0.173940	0.895530
O2311	O231	0.641080	0.985360	0.907800
O2321	O232	0.736320	0.007940	0.001950
O2331	O233	0.719080	0.045260	0.924680
O2341	O234	0.769460	0.127210	0.945200
O2351	O235	0.790240	0.085810	0.032660
O2361	O236	0.681030	0.157540	0.915440
O2371	O237	0.672180	0.214800	0.002610
O2381	O238	0.765060	0.184320	0.028370
O2391	O239	0.725670	0.067000	0.101330
O2401	O240	0.695850	0.168530	0.097360
C641	C64	0.785520	0.907760	0.169520
C651	C65	0.807390	0.869820	0.142810
H221	H22	0.801700	0.867900	0.109200
C661	C66	0.837400	0.834870	0.165000
C671	C67	0.847560	0.839300	0.213940
H231	H23	0.870400	0.817300	0.228700
C681	C68	0.824400	0.875910	0.241460
C691	C69	0.792620	0.909240	0.219230
H241	H24	0.775600	0.933200	0.238000
C701	C70	0.754390	0.946650	0.145370
C711	C71	0.858900	0.791640	0.137970
C721	C72	0.834290	0.877970	0.294590
