data_XAPTUE_clean_PM
_symmetry_space_group_name_H-M	'P1'
_cell_length_a	10.687900
_cell_length_b	10.687900
_cell_length_c	18.679100
_cell_angle_alpha	74.205300
_cell_angle_beta	74.205300
_cell_angle_gamma	64.700500
_symmetry_Int_Tables_number 1

loop_
_symmetry_equiv_pos_as_xyz
'x,y,z'

loop_
_atom_site_label
_atom_site_type_symbol
_atom_site_fract_x
_atom_site_fract_y
_atom_site_fract_z
Gd11	Gd1	0.558090	0.438250	0.102180
Gd21	Gd2	0.561750	0.441910	0.397820
Gd31	Gd3	0.441910	0.561750	0.897820
Gd41	Gd4	0.438250	0.558090	0.602180
H11	H1	0.471800	0.115400	0.229400
H21	H2	0.536000	0.791200	0.089100
H31	H3	0.378800	0.210600	0.438600
H41	H4	0.368500	0.989700	0.492600
H51	H5	0.441000	0.018800	0.884800
H61	H6	0.464500	0.893700	0.283700
H71	H7	0.884600	0.528200	0.270600
H81	H8	0.208800	0.464000	0.410900
H91	H9	0.789400	0.621200	0.061400
H101	H10	0.010300	0.631500	0.007400
H111	H11	0.981200	0.559000	0.615200
H121	H12	0.106300	0.535500	0.216300
H131	H13	0.528200	0.884600	0.770600
H141	H14	0.464000	0.208800	0.910900
H151	H15	0.621200	0.789400	0.561400
H161	H16	0.631500	0.010300	0.507400
H171	H17	0.559000	0.981200	0.115200
H181	H18	0.535500	0.106300	0.716300
H191	H19	0.115400	0.471800	0.729400
H201	H20	0.791200	0.536000	0.589100
H211	H21	0.210600	0.378800	0.938600
H221	H22	0.989700	0.368500	0.992600
H231	H23	0.018800	0.441000	0.384800
H241	H24	0.893700	0.464500	0.783700
C11	C1	0.444170	0.321170	0.294110
C21	C2	0.486870	0.886250	0.984230
C31	C3	0.428740	0.183180	0.328880
C41	C4	0.452530	0.089330	0.282810
C51	C5	0.521540	0.875760	0.052890
C61	C6	0.396820	0.146100	0.407150
C71	C7	0.472200	0.765780	0.966130
C81	C8	0.391350	0.014550	0.439210
C91	C9	0.465120	0.011120	0.931570
C101	C10	0.419290	0.919270	0.393370
C111	C11	0.427010	0.772970	0.429400
C121	C12	0.447990	0.957750	0.315070
C131	C13	0.678830	0.555830	0.205890
C141	C14	0.113750	0.513130	0.515770
C151	C15	0.816820	0.571260	0.171120
C161	C16	0.910670	0.547470	0.217190
C171	C17	0.124240	0.478460	0.447110
C181	C18	0.853900	0.603180	0.092850
C191	C19	0.234220	0.527800	0.533870
C201	C20	0.985450	0.608650	0.060790
C211	C21	0.988880	0.534880	0.568430
C221	C22	0.080730	0.580710	0.106630
C231	C23	0.227030	0.572990	0.070600
C241	C24	0.042250	0.552010	0.184930
C251	C25	0.555830	0.678830	0.705890
C261	C26	0.513130	0.113750	0.015770
C271	C27	0.571260	0.816820	0.671120
C281	C28	0.547470	0.910670	0.717190
C291	C29	0.478460	0.124240	0.947110
C301	C30	0.603180	0.853900	0.592850
C311	C31	0.527800	0.234220	0.033870
C321	C32	0.608650	0.985450	0.560790
C331	C33	0.534880	0.988880	0.068430
C341	C34	0.580710	0.080730	0.606630
C351	C35	0.572990	0.227030	0.570600
C361	C36	0.552010	0.042250	0.684930
C371	C37	0.321170	0.444170	0.794110
C381	C38	0.886250	0.486870	0.484230
C391	C39	0.183180	0.428740	0.828880
C401	C40	0.089330	0.452530	0.782810
C411	C41	0.875760	0.521540	0.552890
C421	C42	0.146100	0.396820	0.907150
C431	C43	0.765780	0.472200	0.466130
C441	C44	0.014550	0.391350	0.939210
C451	C45	0.011120	0.465120	0.431570
C461	C46	0.919270	0.419290	0.893370
C471	C47	0.772970	0.427010	0.929400
C481	C48	0.957750	0.447990	0.815070
O11	O1	0.471230	0.350770	0.224070
O21	O2	0.510130	0.645550	0.007890
O31	O3	0.426470	0.400470	0.338900
O41	O4	0.422460	0.787800	0.907960
O51	O5	0.394300	0.747500	0.500480
O61	O6	0.468360	0.685380	0.386350
O71	O7	0.649230	0.528770	0.275930
O81	O8	0.354450	0.489870	0.492110
O91	O9	0.599530	0.573530	0.161100
O101	O10	0.212200	0.577540	0.592040
O111	O11	0.252500	0.605700	0.999520
O121	O12	0.314620	0.531640	0.113650
O131	O13	0.528770	0.649230	0.775930
O141	O14	0.489870	0.354450	0.992110
O151	O15	0.573530	0.599530	0.661100
O161	O16	0.577540	0.212200	0.092040
O171	O17	0.605700	0.252500	0.499520
O181	O18	0.531640	0.314620	0.613650
O191	O19	0.350770	0.471230	0.724070
O201	O20	0.645550	0.510130	0.507890
O211	O21	0.400470	0.426470	0.838900
O221	O22	0.787800	0.422460	0.407960
O231	O23	0.747500	0.394300	0.000480
O241	O24	0.685380	0.468360	0.886350
