data_XAPYAO_clean_PM
_symmetry_space_group_name_H-M	'P1'
_cell_length_a	15.095800
_cell_length_b	17.007100
_cell_length_c	17.484200
_cell_angle_alpha	90.000000
_cell_angle_beta	90.000000
_cell_angle_gamma	90.000000
_symmetry_Int_Tables_number 1

loop_
_symmetry_equiv_pos_as_xyz
'x,y,z'

loop_
_atom_site_label
_atom_site_type_symbol
_atom_site_fract_x
_atom_site_fract_y
_atom_site_fract_z
Ni11	Ni1	0.516600	0.931500	0.837100
Ni21	Ni2	0.991900	0.433800	0.935400
Ni31	Ni3	0.983400	0.931500	0.337100
Ni41	Ni4	0.508100	0.433800	0.435400
H11	H1	0.179300	0.090100	0.648100
H21	H2	0.703000	0.257300	0.692700
H31	H3	0.798300	0.752800	0.086200
H41	H4	0.311500	0.609800	0.134200
H51	H5	0.972400	0.060900	0.473100
H61	H6	0.050400	0.097400	0.578800
H71	H7	0.245200	0.948700	0.513600
H81	H8	0.160700	0.917500	0.408900
H91	H9	0.400800	0.072000	0.806600
H101	H10	0.291300	0.118500	0.729000
H111	H11	0.293100	0.910300	0.617100
H121	H12	0.406000	0.871200	0.697300
H131	H13	0.544900	0.036600	0.699200
H141	H14	0.608900	0.152400	0.662600
H151	H15	0.721800	0.165900	0.872500
H161	H16	0.654400	0.048700	0.901200
H171	H17	0.804700	0.373800	0.945700
H181	H18	0.702600	0.298200	0.881400
H191	H19	0.857800	0.312600	0.694100
H201	H20	0.954900	0.388500	0.763500
H211	H21	0.708100	0.879500	0.834100
H221	H22	0.806600	0.800800	0.897600
H231	H23	0.646400	0.814600	0.082900
H241	H24	0.552300	0.891900	0.012200
H251	H25	0.851800	0.552200	0.870600
H261	H26	0.783800	0.668500	0.902200
H271	H27	0.885300	0.643200	0.115000
H281	H28	0.950800	0.530000	0.075700
H291	H29	0.094800	0.583600	0.968600
H301	H30	0.198400	0.634400	0.050800
H311	H31	0.216100	0.420100	0.150600
H321	H32	0.109800	0.377100	0.065900
H331	H33	0.525300	0.562200	0.301800
H341	H34	0.447500	0.605800	0.197700
H351	H35	0.248100	0.460500	0.259600
H361	H36	0.331500	0.424100	0.362900
H371	H37	0.320700	0.090100	0.148100
H381	H38	0.797000	0.257300	0.192700
H391	H39	0.701700	0.752800	0.586200
H401	H40	0.188500	0.609800	0.634200
H411	H41	0.527600	0.060900	0.973100
H421	H42	0.449600	0.097400	0.078800
H431	H43	0.254800	0.948700	0.013600
H441	H44	0.339300	0.917500	0.908900
H451	H45	0.099200	0.072000	0.306600
H461	H46	0.208700	0.118500	0.229000
H471	H47	0.206900	0.910300	0.117100
H481	H48	0.094000	0.871200	0.197300
H491	H49	0.955100	0.036600	0.199200
H501	H50	0.891100	0.152400	0.162600
H511	H51	0.778200	0.165900	0.372500
H521	H52	0.845600	0.048700	0.401200
H531	H53	0.695300	0.373800	0.445700
H541	H54	0.797400	0.298200	0.381400
H551	H55	0.642200	0.312600	0.194100
H561	H56	0.545100	0.388500	0.263500
H571	H57	0.791900	0.879500	0.334100
H581	H58	0.693400	0.800800	0.397600
H591	H59	0.853600	0.814600	0.582900
H601	H60	0.947700	0.891900	0.512200
H611	H61	0.648200	0.552200	0.370600
H621	H62	0.716200	0.668500	0.402200
H631	H63	0.614700	0.643200	0.615000
H641	H64	0.549200	0.530000	0.575700
H651	H65	0.405200	0.583600	0.468600
H661	H66	0.301600	0.634400	0.550800
H671	H67	0.283900	0.420100	0.650600
H681	H68	0.390200	0.377100	0.565900
H691	H69	0.974700	0.562200	0.801800
H701	H70	0.052500	0.605800	0.697700
H711	H71	0.251900	0.460500	0.759600
H721	H72	0.168500	0.424100	0.862900
C11	C1	0.027200	0.037500	0.481700
C21	C2	0.073700	0.059900	0.545800
C31	C3	0.157400	0.025500	0.561500
C41	C4	0.189800	0.971700	0.507300
C51	C5	0.137800	0.953100	0.444100
C61	C6	0.378800	0.039200	0.768600
C71	C7	0.312100	0.067400	0.722400
C81	C8	0.275100	0.018900	0.665000
C91	C9	0.313100	0.943900	0.655400
C101	C10	0.381400	0.920800	0.704500
C111	C11	0.580100	0.063100	0.734400
C121	C12	0.618600	0.133000	0.711600
C131	C13	0.673300	0.174900	0.763700
C141	C14	0.686200	0.141300	0.836400
C151	C15	0.644400	0.070400	0.853100
C161	C16	0.816000	0.360600	0.895100
C171	C17	0.754200	0.314300	0.856900
C181	C18	0.770600	0.292400	0.781200
C191	C19	0.846600	0.323100	0.745400
C201	C20	0.904600	0.369100	0.787800
C211	C21	0.694600	0.864400	0.883800
C221	C22	0.754600	0.816900	0.921500
C231	C23	0.735200	0.793200	0.997600
C241	C24	0.659100	0.825000	0.031900
C251	C25	0.602900	0.872000	0.988700
C261	C26	0.860000	0.571700	0.919700
C271	C27	0.818000	0.642100	0.938300
C281	C28	0.828300	0.672800	0.012800
C291	C29	0.878700	0.627000	0.064600
C301	C30	0.917900	0.558500	0.040300
C311	C31	0.119600	0.550700	0.005300
C321	C32	0.182800	0.581600	0.054100
C331	C33	0.223600	0.532400	0.108900
C341	C34	0.193400	0.454200	0.113800
C351	C35	0.128900	0.429000	0.062600
C361	C36	0.469400	0.541200	0.292800
C371	C37	0.423000	0.567800	0.229600
C381	C38	0.337900	0.536600	0.213800
C391	C39	0.304300	0.481800	0.266300
C401	C40	0.355700	0.459700	0.328400
C411	C41	0.472800	0.037500	0.981700
C421	C42	0.426300	0.059900	0.045800
C431	C43	0.342600	0.025500	0.061500
C441	C44	0.310200	0.971700	0.007300
C451	C45	0.362200	0.953100	0.944100
C461	C46	0.121200	0.039200	0.268600
C471	C47	0.187900	0.067400	0.222400
C481	C48	0.224900	0.018900	0.165000
C491	C49	0.186900	0.943900	0.155400
C501	C50	0.118600	0.920800	0.204500
C511	C51	0.919900	0.063100	0.234400
C521	C52	0.881400	0.133000	0.211600
C531	C53	0.826700	0.174900	0.263700
C541	C54	0.813800	0.141300	0.336400
C551	C55	0.855600	0.070400	0.353100
C561	C56	0.684000	0.360600	0.395100
C571	C57	0.745800	0.314300	0.356900
C581	C58	0.729400	0.292400	0.281200
C591	C59	0.653400	0.323100	0.245400
C601	C60	0.595400	0.369100	0.287800
C611	C61	0.805400	0.864400	0.383800
C621	C62	0.745400	0.816900	0.421500
C631	C63	0.764800	0.793200	0.497600
C641	C64	0.840900	0.825000	0.531900
C651	C65	0.897100	0.872000	0.488700
C661	C66	0.640000	0.571700	0.419700
C671	C67	0.682000	0.642100	0.438300
C681	C68	0.671700	0.672800	0.512800
C691	C69	0.621300	0.627000	0.564600
C701	C70	0.582100	0.558500	0.540300
C711	C71	0.380400	0.550700	0.505300
C721	C72	0.317200	0.581600	0.554100
C731	C73	0.276400	0.532400	0.608900
C741	C74	0.306600	0.454200	0.613800
C751	C75	0.371100	0.429000	0.562600
C761	C76	0.030600	0.541200	0.792800
C771	C77	0.077000	0.567800	0.729600
C781	C78	0.162100	0.536600	0.713800
C791	C79	0.195700	0.481800	0.766300
C801	C80	0.144300	0.459700	0.828400
N11	N1	0.056000	0.983400	0.429900
N21	N2	0.201500	0.049000	0.626900
N31	N3	0.414200	0.965900	0.761800
N41	N4	0.590300	0.030600	0.805000
N51	N5	0.713700	0.243200	0.739000
N61	N6	0.892100	0.387500	0.862600
N71	N7	0.617200	0.890700	0.914100
N81	N8	0.788900	0.741000	0.039100
N91	N9	0.911700	0.529700	0.967500
N101	N10	0.092100	0.475000	0.008200
N111	N11	0.293300	0.564900	0.150500
N121	N12	0.438400	0.486200	0.342300
N131	N13	0.444000	0.983400	0.929900
N141	N14	0.298500	0.049000	0.126900
N151	N15	0.085800	0.965900	0.261800
N161	N16	0.909700	0.030600	0.305000
N171	N17	0.786300	0.243200	0.239000
N181	N18	0.607900	0.387500	0.362600
N191	N19	0.882800	0.890700	0.414100
N201	N20	0.711100	0.741000	0.539100
N211	N21	0.588300	0.529700	0.467500
N221	N22	0.407900	0.475000	0.508200
N231	N23	0.206700	0.564900	0.650500
N241	N24	0.061600	0.486200	0.842300
Ni51	Ni5	0.483400	0.068500	0.337100
Ni61	Ni6	0.008100	0.566200	0.435400
Ni71	Ni7	0.016600	0.068500	0.837100
Ni81	Ni8	0.491900	0.566200	0.935400
H731	H73	0.820700	0.909900	0.148100
H741	H74	0.297000	0.742700	0.192700
H751	H75	0.201700	0.247200	0.586200
H761	H76	0.688500	0.390200	0.634200
H771	H77	0.027600	0.939100	0.973100
H781	H78	0.949600	0.902600	0.078800
H791	H79	0.754800	0.051300	0.013600
H801	H80	0.839300	0.082500	0.908900
H811	H81	0.599200	0.928000	0.306600
H821	H82	0.708700	0.881500	0.229000
H831	H83	0.706900	0.089700	0.117100
H841	H84	0.594000	0.128800	0.197300
H851	H85	0.455100	0.963400	0.199200
H861	H86	0.391100	0.847600	0.162600
H871	H87	0.278200	0.834100	0.372500
H881	H88	0.345600	0.951300	0.401200
H891	H89	0.195300	0.626200	0.445700
H901	H90	0.297400	0.701800	0.381400
H911	H91	0.142200	0.687400	0.194100
H921	H92	0.045100	0.611500	0.263500
H931	H93	0.291900	0.120500	0.334100
H941	H94	0.193400	0.199200	0.397600
H951	H95	0.353600	0.185400	0.582900
H961	H96	0.447700	0.108100	0.512200
H971	H97	0.148200	0.447800	0.370600
H981	H98	0.216200	0.331500	0.402200
H991	H99	0.114700	0.356800	0.615000
H1001	H100	0.049200	0.470000	0.575700
H1011	H101	0.905200	0.416400	0.468600
H1021	H102	0.801600	0.365600	0.550800
H1031	H103	0.783900	0.579900	0.650600
H1041	H104	0.890200	0.622900	0.565900
H1051	H105	0.474700	0.437800	0.801800
H1061	H106	0.552500	0.394200	0.697700
H1071	H107	0.751900	0.539500	0.759600
H1081	H108	0.668500	0.575900	0.862900
H1091	H109	0.679300	0.909900	0.648100
H1101	H110	0.203000	0.742700	0.692700
H1111	H111	0.298300	0.247200	0.086200
H1121	H112	0.811500	0.390200	0.134200
H1131	H113	0.472400	0.939100	0.473100
H1141	H114	0.550400	0.902600	0.578800
H1151	H115	0.745200	0.051300	0.513600
H1161	H116	0.660700	0.082500	0.408900
H1171	H117	0.900800	0.928000	0.806600
H1181	H118	0.791300	0.881500	0.729000
H1191	H119	0.793100	0.089700	0.617100
H1201	H120	0.906000	0.128800	0.697300
H1211	H121	0.044900	0.963400	0.699200
H1221	H122	0.108900	0.847600	0.662600
H1231	H123	0.221800	0.834100	0.872500
H1241	H124	0.154400	0.951300	0.901200
H1251	H125	0.304700	0.626200	0.945700
H1261	H126	0.202600	0.701800	0.881400
H1271	H127	0.357800	0.687400	0.694100
H1281	H128	0.454900	0.611500	0.763500
H1291	H129	0.208100	0.120500	0.834100
H1301	H130	0.306600	0.199200	0.897600
H1311	H131	0.146400	0.185400	0.082900
H1321	H132	0.052300	0.108100	0.012200
H1331	H133	0.351800	0.447800	0.870600
H1341	H134	0.283800	0.331500	0.902200
H1351	H135	0.385300	0.356800	0.115000
H1361	H136	0.450800	0.470000	0.075700
H1371	H137	0.594800	0.416400	0.968600
H1381	H138	0.698400	0.365600	0.050800
H1391	H139	0.716100	0.579900	0.150600
H1401	H140	0.609800	0.622900	0.065900
H1411	H141	0.025300	0.437800	0.301800
H1421	H142	0.947500	0.394200	0.197700
H1431	H143	0.748100	0.539500	0.259600
H1441	H144	0.831500	0.575900	0.362900
C811	C81	0.972800	0.962500	0.981700
C821	C82	0.926300	0.940100	0.045800
C831	C83	0.842600	0.974500	0.061500
C841	C84	0.810200	0.028300	0.007300
C851	C85	0.862200	0.046900	0.944100
C861	C86	0.621200	0.960800	0.268600
C871	C87	0.687900	0.932600	0.222400
C881	C88	0.724900	0.981100	0.165000
C891	C89	0.686900	0.056100	0.155400
C901	C90	0.618600	0.079200	0.204500
C911	C91	0.419900	0.936900	0.234400
C921	C92	0.381400	0.867000	0.211600
C931	C93	0.326700	0.825100	0.263700
C941	C94	0.313800	0.858700	0.336400
C951	C95	0.355600	0.929600	0.353100
C961	C96	0.184000	0.639400	0.395100
C971	C97	0.245800	0.685700	0.356900
C981	C98	0.229400	0.707600	0.281200
C991	C99	0.153400	0.676900	0.245400
C1001	C100	0.095400	0.630900	0.287800
C1011	C101	0.305400	0.135600	0.383800
C1021	C102	0.245400	0.183100	0.421500
C1031	C103	0.264800	0.206800	0.497600
C1041	C104	0.340900	0.175000	0.531900
C1051	C105	0.397100	0.128000	0.488700
C1061	C106	0.140000	0.428300	0.419700
C1071	C107	0.182000	0.357900	0.438300
C1081	C108	0.171700	0.327200	0.512800
C1091	C109	0.121300	0.373000	0.564600
C1101	C110	0.082100	0.441500	0.540300
C1111	C111	0.880400	0.449300	0.505300
C1121	C112	0.817200	0.418400	0.554100
C1131	C113	0.776400	0.467600	0.608900
C1141	C114	0.806600	0.545800	0.613800
C1151	C115	0.871100	0.571000	0.562600
C1161	C116	0.530600	0.458800	0.792800
C1171	C117	0.577000	0.432200	0.729600
C1181	C118	0.662100	0.463400	0.713800
C1191	C119	0.695700	0.518200	0.766300
C1201	C120	0.644300	0.540300	0.828400
C1211	C121	0.527200	0.962500	0.481700
C1221	C122	0.573700	0.940100	0.545800
C1231	C123	0.657400	0.974500	0.561500
C1241	C124	0.689800	0.028300	0.507300
C1251	C125	0.637800	0.046900	0.444100
C1261	C126	0.878800	0.960800	0.768600
C1271	C127	0.812100	0.932600	0.722400
C1281	C128	0.775100	0.981100	0.665000
C1291	C129	0.813100	0.056100	0.655400
C1301	C130	0.881400	0.079200	0.704500
C1311	C131	0.080100	0.936900	0.734400
C1321	C132	0.118600	0.867000	0.711600
C1331	C133	0.173300	0.825100	0.763700
C1341	C134	0.186200	0.858700	0.836400
C1351	C135	0.144400	0.929600	0.853100
C1361	C136	0.316000	0.639400	0.895100
C1371	C137	0.254200	0.685700	0.856900
C1381	C138	0.270600	0.707600	0.781200
C1391	C139	0.346600	0.676900	0.745400
C1401	C140	0.404600	0.630900	0.787800
C1411	C141	0.194600	0.135600	0.883800
C1421	C142	0.254600	0.183100	0.921500
C1431	C143	0.235200	0.206800	0.997600
C1441	C144	0.159100	0.175000	0.031900
C1451	C145	0.102900	0.128000	0.988700
C1461	C146	0.360000	0.428300	0.919700
C1471	C147	0.318000	0.357900	0.938300
C1481	C148	0.328300	0.327200	0.012800
C1491	C149	0.378700	0.373000	0.064600
C1501	C150	0.417900	0.441500	0.040300
C1511	C151	0.619600	0.449300	0.005300
C1521	C152	0.682800	0.418400	0.054100
C1531	C153	0.723600	0.467600	0.108900
C1541	C154	0.693400	0.545800	0.113800
C1551	C155	0.628900	0.571000	0.062600
C1561	C156	0.969400	0.458800	0.292800
C1571	C157	0.923000	0.432200	0.229600
C1581	C158	0.837900	0.463400	0.213800
C1591	C159	0.804300	0.518200	0.266300
C1601	C160	0.855700	0.540300	0.328400
N251	N25	0.944000	0.016600	0.929900
N261	N26	0.798500	0.951000	0.126900
N271	N27	0.585800	0.034100	0.261800
N281	N28	0.409700	0.969400	0.305000
N291	N29	0.286300	0.756800	0.239000
N301	N30	0.107900	0.612500	0.362600
N311	N31	0.382800	0.109300	0.414100
N321	N32	0.211100	0.259000	0.539100
N331	N33	0.088300	0.470300	0.467500
N341	N34	0.907900	0.525000	0.508200
N351	N35	0.706700	0.435100	0.650500
N361	N36	0.561600	0.513800	0.842300
N371	N37	0.556000	0.016600	0.429900
N381	N38	0.701500	0.951000	0.626900
N391	N39	0.914200	0.034100	0.761800
N401	N40	0.090300	0.969400	0.805000
N411	N41	0.213700	0.756800	0.739000
N421	N42	0.392100	0.612500	0.862600
N431	N43	0.117200	0.109300	0.914100
N441	N44	0.288900	0.259000	0.039100
N451	N45	0.411700	0.470300	0.967500
N461	N46	0.592100	0.525000	0.008200
N471	N47	0.793300	0.435100	0.150500
N481	N48	0.938400	0.513800	0.342300
