data_XAQTEO_clean_PM
_symmetry_space_group_name_H-M	'P1'
_cell_length_a	10.031700
_cell_length_b	10.031700
_cell_length_c	12.883700
_cell_angle_alpha	90.000000
_cell_angle_beta	90.000000
_cell_angle_gamma	90.000000
_symmetry_Int_Tables_number 1

loop_
_symmetry_equiv_pos_as_xyz
'x,y,z'

loop_
_atom_site_label
_atom_site_type_symbol
_atom_site_fract_x
_atom_site_fract_y
_atom_site_fract_z
Co11	Co1	0.875900	0.124600	0.297800
P11	P1	0.852000	0.859000	0.179900
O11	O1	0.730000	0.768400	0.183000
O21	O2	0.917600	0.848000	0.076200
O31	O3	0.809100	0.007500	0.196600
O41	O4	0.887500	0.048100	0.432900
O51	O5	0.054600	0.185800	0.266400
Co21	Co2	0.124100	0.875400	0.297800
P21	P2	0.148000	0.141000	0.179900
O61	O6	0.270000	0.231600	0.183000
O71	O7	0.082400	0.152000	0.076200
O81	O8	0.190900	0.992500	0.196600
O91	O9	0.112500	0.951900	0.432900
O101	O10	0.945400	0.814200	0.266400
Co31	Co3	0.124600	0.124100	0.702200
P31	P3	0.859000	0.148000	0.820100
O111	O11	0.768400	0.270000	0.817000
O121	O12	0.848000	0.082400	0.923800
O131	O13	0.007500	0.190900	0.803400
O141	O14	0.048100	0.112500	0.567100
O151	O15	0.185800	0.945400	0.733600
Co41	Co4	0.875400	0.875900	0.702200
P41	P4	0.141000	0.852000	0.820100
O161	O16	0.231600	0.730000	0.817000
O171	O17	0.152000	0.917600	0.923800
O181	O18	0.992500	0.809100	0.803400
O191	O19	0.951900	0.887500	0.567100
O201	O20	0.814200	0.054600	0.733600
Co51	Co5	0.624100	0.624600	0.202200
P51	P5	0.648000	0.359000	0.320100
O211	O21	0.770000	0.268400	0.317000
O221	O22	0.582400	0.348000	0.423800
O231	O23	0.690900	0.507500	0.303400
O241	O24	0.612500	0.548100	0.067100
O251	O25	0.445400	0.685800	0.233600
Co61	Co6	0.375900	0.375400	0.202200
P61	P6	0.352000	0.641000	0.320100
O261	O26	0.230000	0.731600	0.317000
O271	O27	0.417600	0.652000	0.423800
O281	O28	0.309100	0.492500	0.303400
O291	O29	0.387500	0.451900	0.067100
O301	O30	0.554600	0.314200	0.233600
Co71	Co7	0.375400	0.624100	0.797800
P71	P7	0.641000	0.648000	0.679900
O311	O31	0.731600	0.770000	0.683000
O321	O32	0.652000	0.582400	0.576200
O331	O33	0.492500	0.690900	0.696600
O341	O34	0.451900	0.612500	0.932900
O351	O35	0.314200	0.445400	0.766400
Co81	Co8	0.624600	0.375900	0.797800
P81	P8	0.359000	0.352000	0.679900
O361	O36	0.268400	0.230000	0.683000
O371	O37	0.348000	0.417600	0.576200
O381	O38	0.507500	0.309100	0.696600
O391	O39	0.548100	0.387500	0.932900
O401	O40	0.685800	0.554600	0.766400
Co91	Co9	0.000000	0.000000	0.000000
Co101	Co10	0.500000	0.500000	0.500000
P91	P9	0.000000	0.000000	0.500000
P101	P10	0.500000	0.500000	0.000000
