data_XAQTOY01_clean_PM
_symmetry_space_group_name_H-M	'P1'
_cell_length_a	9.993700
_cell_length_b	9.993700
_cell_length_c	12.851900
_cell_angle_alpha	90.000000
_cell_angle_beta	90.000000
_cell_angle_gamma	90.000000
_symmetry_Int_Tables_number 1

loop_
_symmetry_equiv_pos_as_xyz
'x,y,z'

loop_
_atom_site_label
_atom_site_type_symbol
_atom_site_fract_x
_atom_site_fract_y
_atom_site_fract_z
Co11	Co1	0.878900	0.126100	0.298100
P11	P1	0.850100	0.861400	0.178400
O11	O1	0.727800	0.777600	0.173200
O21	O2	0.922700	0.847900	0.075700
O31	O3	0.809600	0.010100	0.193300
O41	O4	0.880000	0.042600	0.433700
O51	O5	0.058100	0.185700	0.264200
Co21	Co2	0.121100	0.873900	0.298100
P21	P2	0.149900	0.138600	0.178400
O61	O6	0.272200	0.222400	0.173200
O71	O7	0.077300	0.152100	0.075700
O81	O8	0.190400	0.989900	0.193300
O91	O9	0.120000	0.957400	0.433700
O101	O10	0.941900	0.814300	0.264200
Co31	Co3	0.126100	0.121100	0.701900
P31	P3	0.861400	0.149900	0.821600
O111	O11	0.777600	0.272200	0.826800
O121	O12	0.847900	0.077300	0.924300
O131	O13	0.010100	0.190400	0.806700
O141	O14	0.042600	0.120000	0.566300
O151	O15	0.185700	0.941900	0.735800
Co41	Co4	0.873900	0.878900	0.701900
P41	P4	0.138600	0.850100	0.821600
O161	O16	0.222400	0.727800	0.826800
O171	O17	0.152100	0.922700	0.924300
O181	O18	0.989900	0.809600	0.806700
O191	O19	0.957400	0.880000	0.566300
O201	O20	0.814300	0.058100	0.735800
Co51	Co5	0.621100	0.626100	0.201900
P51	P5	0.649900	0.361400	0.321600
O211	O21	0.772200	0.277600	0.326800
O221	O22	0.577300	0.347900	0.424300
O231	O23	0.690400	0.510100	0.306700
O241	O24	0.620000	0.542600	0.066300
O251	O25	0.441900	0.685700	0.235800
Co61	Co6	0.378900	0.373900	0.201900
P61	P6	0.350100	0.638600	0.321600
O261	O26	0.227800	0.722400	0.326800
O271	O27	0.422700	0.652100	0.424300
O281	O28	0.309600	0.489900	0.306700
O291	O29	0.380000	0.457400	0.066300
O301	O30	0.558100	0.314300	0.235800
Co71	Co7	0.373900	0.621100	0.798100
P71	P7	0.638600	0.649900	0.678400
O311	O31	0.722400	0.772200	0.673200
O321	O32	0.652100	0.577300	0.575700
O331	O33	0.489900	0.690400	0.693300
O341	O34	0.457400	0.620000	0.933700
O351	O35	0.314300	0.441900	0.764200
Co81	Co8	0.626100	0.378900	0.798100
P81	P8	0.361400	0.350100	0.678400
O361	O36	0.277600	0.227800	0.673200
O371	O37	0.347900	0.422700	0.575700
O381	O38	0.510100	0.309600	0.693300
O391	O39	0.542600	0.380000	0.933700
O401	O40	0.685700	0.558100	0.764200
Co91	Co9	0.000000	0.000000	0.000000
Co101	Co10	0.500000	0.500000	0.500000
P91	P9	0.000000	0.000000	0.500000
P101	P10	0.500000	0.500000	0.000000
