data_XAQTIS_clean_PM
_symmetry_space_group_name_H-M	'P1'
_cell_length_a	10.087300
_cell_length_b	10.087300
_cell_length_c	12.935800
_cell_angle_alpha	90.000000
_cell_angle_beta	90.000000
_cell_angle_gamma	90.000000
_symmetry_Int_Tables_number 1

loop_
_symmetry_equiv_pos_as_xyz
'x,y,z'

loop_
_atom_site_label
_atom_site_type_symbol
_atom_site_fract_x
_atom_site_fract_y
_atom_site_fract_z
Co11	Co1	0.881600	0.132400	0.298900
P11	P1	0.844600	0.867900	0.183900
O11	O1	0.720800	0.784800	0.188700
O21	O2	0.906200	0.857900	0.076100
O31	O3	0.807500	0.012300	0.203400
O41	O4	0.889500	0.062900	0.434200
O51	O5	0.058400	0.181500	0.264700
Co21	Co2	0.118400	0.867600	0.298900
P21	P2	0.155400	0.132100	0.183900
O61	O6	0.279200	0.215200	0.188700
O71	O7	0.093800	0.142100	0.076100
O81	O8	0.192500	0.987700	0.203400
O91	O9	0.110500	0.937100	0.434200
O101	O10	0.941600	0.818500	0.264700
Co31	Co3	0.132400	0.118400	0.701100
P31	P3	0.867900	0.155400	0.816100
O111	O11	0.784800	0.279200	0.811300
O121	O12	0.857900	0.093800	0.923900
O131	O13	0.012300	0.192500	0.796600
O141	O14	0.062900	0.110500	0.565800
O151	O15	0.181500	0.941600	0.735300
Co41	Co4	0.867600	0.881600	0.701100
P41	P4	0.132100	0.844600	0.816100
O161	O16	0.215200	0.720800	0.811300
O171	O17	0.142100	0.906200	0.923900
O181	O18	0.987700	0.807500	0.796600
O191	O19	0.937100	0.889500	0.565800
O201	O20	0.818500	0.058400	0.735300
Co51	Co5	0.618400	0.632400	0.201100
P51	P5	0.655400	0.367900	0.316100
O211	O21	0.779200	0.284800	0.311300
O221	O22	0.593800	0.357900	0.423900
O231	O23	0.692500	0.512300	0.296600
O241	O24	0.610500	0.562900	0.065800
O251	O25	0.441600	0.681500	0.235300
Co61	Co6	0.381600	0.367600	0.201100
P61	P6	0.344600	0.632100	0.316100
O261	O26	0.220800	0.715200	0.311300
O271	O27	0.406200	0.642100	0.423900
O281	O28	0.307500	0.487700	0.296600
O291	O29	0.389500	0.437100	0.065800
O301	O30	0.558400	0.318500	0.235300
Co71	Co7	0.367600	0.618400	0.798900
P71	P7	0.632100	0.655400	0.683900
O311	O31	0.715200	0.779200	0.688700
O321	O32	0.642100	0.593800	0.576100
O331	O33	0.487700	0.692500	0.703400
O341	O34	0.437100	0.610500	0.934200
O351	O35	0.318500	0.441600	0.764700
Co81	Co8	0.632400	0.381600	0.798900
P81	P8	0.367900	0.344600	0.683900
O361	O36	0.284800	0.220800	0.688700
O371	O37	0.357900	0.406200	0.576100
O381	O38	0.512300	0.307500	0.703400
O391	O39	0.562900	0.389500	0.934200
O401	O40	0.681500	0.558400	0.764700
Co91	Co9	0.000000	0.000000	0.000000
Co101	Co10	0.500000	0.500000	0.500000
P91	P9	0.000000	0.000000	0.500000
P101	P10	0.500000	0.500000	0.000000
