data_XAQTEO01_clean_PM
_symmetry_space_group_name_H-M	'P1'
_cell_length_a	10.010300
_cell_length_b	9.989600
_cell_length_c	12.852000
_cell_angle_alpha	90.000000
_cell_angle_beta	91.113000
_cell_angle_gamma	90.000000
_symmetry_Int_Tables_number 1

loop_
_symmetry_equiv_pos_as_xyz
'x,y,z'

loop_
_atom_site_label
_atom_site_type_symbol
_atom_site_fract_x
_atom_site_fract_y
_atom_site_fract_z
Co11	Co1	0.371100	0.049400	0.546300
Co21	Co2	0.118300	0.800900	0.549700
Co31	Co3	0.128900	0.043400	0.956000
Co41	Co4	0.376100	0.793100	0.946500
Co51	Co5	0.251600	0.905300	0.249000
P11	P1	0.113000	0.762300	0.062000
P21	P2	0.396800	0.055000	0.074600
P31	P3	0.101100	0.060900	0.421700
P41	P4	0.246800	0.935600	0.750200
P51	P5	0.392800	0.778000	0.438400
O11	O1	0.298900	0.738600	0.525100
O21	O2	0.332800	0.759600	0.332600
O31	O3	0.483400	0.175200	0.084600
O41	O4	0.125300	0.896100	0.679700
O51	O5	0.440600	0.966600	0.984700
O61	O6	0.198300	0.107400	0.508100
O71	O7	0.297200	0.814500	0.809800
O81	O8	0.104300	0.817300	0.171100
O91	O9	0.359800	0.992600	0.685100
O101	O10	0.259300	0.719600	0.045200
O111	O11	0.436500	0.923400	0.450900
O121	O12	0.409500	0.975800	0.174600
O131	O13	0.170400	0.056800	0.319100
O141	O14	0.200700	0.046000	0.822400
O151	O15	0.069300	0.867200	0.982400
O161	O16	0.053400	0.920700	0.443800
O171	O17	0.517000	0.691900	0.453200
O181	O18	0.990300	0.158900	0.410500
O191	O19	0.023000	0.643200	0.048500
O201	O20	0.253200	0.101800	0.059100
Co61	Co6	0.628900	0.549400	0.453700
Co71	Co7	0.881700	0.300900	0.450300
Co81	Co8	0.871100	0.543400	0.044000
Co91	Co9	0.623900	0.293100	0.053500
Co101	Co10	0.748400	0.405300	0.751000
P61	P6	0.887000	0.262300	0.938000
P71	P7	0.603200	0.555000	0.925400
P81	P8	0.898900	0.560900	0.578300
P91	P9	0.753200	0.435600	0.249800
P101	P10	0.607200	0.278000	0.561600
O211	O21	0.701100	0.238600	0.474900
O221	O22	0.667200	0.259600	0.667400
O231	O23	0.516600	0.675200	0.915400
O241	O24	0.874700	0.396100	0.320300
O251	O25	0.559400	0.466600	0.015300
O261	O26	0.801700	0.607400	0.491900
O271	O27	0.702800	0.314500	0.190200
O281	O28	0.895700	0.317300	0.828900
O291	O29	0.640200	0.492600	0.314900
O301	O30	0.740700	0.219600	0.954800
O311	O31	0.563500	0.423400	0.549100
O321	O32	0.590500	0.475800	0.825400
O331	O33	0.829600	0.556800	0.680900
O341	O34	0.799300	0.546000	0.177600
O351	O35	0.930700	0.367200	0.017600
O361	O36	0.946600	0.420700	0.556200
O371	O37	0.483000	0.191900	0.546800
O381	O38	0.009700	0.658900	0.589500
O391	O39	0.977000	0.143200	0.951500
O401	O40	0.746800	0.601800	0.940900
