data_XASJUZ_clean_PM
_symmetry_space_group_name_H-M	'P1'
_cell_length_a	10.284600
_cell_length_b	10.284600
_cell_length_c	20.027700
_cell_angle_alpha	90.000000
_cell_angle_beta	90.000000
_cell_angle_gamma	120.000000
_symmetry_Int_Tables_number 1

loop_
_symmetry_equiv_pos_as_xyz
'x,y,z'

loop_
_atom_site_label
_atom_site_type_symbol
_atom_site_fract_x
_atom_site_fract_y
_atom_site_fract_z
O11	O1	0.542600	0.496100	0.681100
O21	O2	0.437900	0.262500	0.645400
C11	C1	0.489800	0.396400	0.635400
C21	C2	0.495100	0.451600	0.565000
C31	C3	0.451300	0.350700	0.513200
H11	H1	0.416800	0.247700	0.521900
C41	C4	0.458000	0.399700	0.448100
H21	H2	0.429200	0.330200	0.412300
O31	O3	0.503900	0.046500	0.681100
O41	O4	0.737500	0.175400	0.645400
C51	C5	0.603600	0.093400	0.635400
C61	C6	0.548400	0.043500	0.565000
C71	C7	0.649300	0.100600	0.513200
H31	H3	0.752300	0.169100	0.521900
C81	C8	0.600300	0.058300	0.448100
H41	H4	0.669800	0.099000	0.412300
O51	O5	0.953500	0.457400	0.681100
O61	O6	0.824600	0.562100	0.645400
C91	C9	0.906600	0.510200	0.635400
C101	C10	0.956500	0.504900	0.565000
C111	C11	0.899400	0.548700	0.513200
H51	H5	0.830900	0.583200	0.521900
C121	C12	0.941700	0.542000	0.448100
H61	H6	0.901000	0.570800	0.412300
O71	O7	0.457400	0.503900	0.181100
O81	O8	0.562100	0.737500	0.145400
C131	C13	0.510200	0.603600	0.135400
C141	C14	0.504900	0.548400	0.065000
C151	C15	0.548700	0.649300	0.013200
H71	H7	0.583200	0.752300	0.021900
C161	C16	0.542000	0.600300	0.948100
H81	H8	0.570800	0.669800	0.912300
O91	O9	0.496100	0.953500	0.181100
O101	O10	0.262500	0.824600	0.145400
C171	C17	0.396400	0.906600	0.135400
C181	C18	0.451600	0.956500	0.065000
C191	C19	0.350700	0.899400	0.013200
H91	H9	0.247700	0.830900	0.021900
C201	C20	0.399700	0.941700	0.948100
H101	H10	0.330200	0.901000	0.912300
O111	O11	0.046500	0.542600	0.181100
O121	O12	0.175400	0.437900	0.145400
C211	C21	0.093400	0.489800	0.135400
C221	C22	0.043500	0.495100	0.065000
C231	C23	0.100600	0.451300	0.013200
H111	H11	0.169100	0.416800	0.021900
C241	C24	0.058300	0.458000	0.948100
H121	H12	0.099000	0.429200	0.912300
O131	O13	0.457400	0.503900	0.318900
O141	O14	0.562100	0.737500	0.354600
C251	C25	0.510200	0.603600	0.364600
C261	C26	0.504900	0.548400	0.435000
C271	C27	0.548700	0.649300	0.486800
H131	H13	0.583200	0.752300	0.478100
C281	C28	0.542000	0.600300	0.551900
H141	H14	0.570800	0.669800	0.587700
O151	O15	0.496100	0.953500	0.318900
O161	O16	0.262500	0.824600	0.354600
C291	C29	0.396400	0.906600	0.364600
C301	C30	0.451600	0.956500	0.435000
C311	C31	0.350700	0.899400	0.486800
H151	H15	0.247700	0.830900	0.478100
C321	C32	0.399700	0.941700	0.551900
H161	H16	0.330200	0.901000	0.587700
O171	O17	0.046500	0.542600	0.318900
O181	O18	0.175400	0.437900	0.354600
C331	C33	0.093400	0.489800	0.364600
C341	C34	0.043500	0.495100	0.435000
C351	C35	0.100600	0.451300	0.486800
H171	H17	0.169100	0.416800	0.478100
C361	C36	0.058300	0.458000	0.551900
H181	H18	0.099000	0.429200	0.587700
O191	O19	0.542600	0.496100	0.818900
O201	O20	0.437900	0.262500	0.854600
C371	C37	0.489800	0.396400	0.864600
C381	C38	0.495100	0.451600	0.935000
C391	C39	0.451300	0.350700	0.986800
H191	H19	0.416800	0.247700	0.978100
C401	C40	0.458000	0.399700	0.051900
H201	H20	0.429200	0.330200	0.087700
O211	O21	0.503900	0.046500	0.818900
O221	O22	0.737500	0.175400	0.854600
C411	C41	0.603600	0.093400	0.864600
C421	C42	0.548400	0.043500	0.935000
C431	C43	0.649300	0.100600	0.986800
H211	H21	0.752300	0.169100	0.978100
C441	C44	0.600300	0.058300	0.051900
H221	H22	0.669800	0.099000	0.087700
O231	O23	0.953500	0.457400	0.818900
O241	O24	0.824600	0.562100	0.854600
C451	C45	0.906600	0.510200	0.864600
C461	C46	0.956500	0.504900	0.935000
C471	C47	0.899400	0.548700	0.986800
H231	H23	0.830900	0.583200	0.978100
C481	C48	0.941700	0.542000	0.051900
H241	H24	0.901000	0.570800	0.087700
Er11	Er1	0.746830	0.585300	0.750000
Er21	Er2	0.414700	0.161530	0.750000
Er31	Er3	0.838470	0.253170	0.750000
Er41	Er4	0.253170	0.414700	0.250000
Er51	Er5	0.585300	0.838470	0.250000
Er61	Er6	0.161530	0.746830	0.250000
O251	O25	0.666670	0.333330	0.750000
O261	O26	0.333330	0.666670	0.250000
