data_XASNUD_clean_PM
_symmetry_space_group_name_H-M	'P1'
_cell_length_a	23.383600
_cell_length_b	23.383600
_cell_length_c	23.383600
_cell_angle_alpha	90.000000
_cell_angle_beta	90.000000
_cell_angle_gamma	90.000000
_symmetry_Int_Tables_number 1

loop_
_symmetry_equiv_pos_as_xyz
'x,y,z'

loop_
_atom_site_label
_atom_site_type_symbol
_atom_site_fract_x
_atom_site_fract_y
_atom_site_fract_z
Zn11	Zn1	0.320860	0.737220	0.206900
O11	O1	0.437700	0.944100	0.953100
O21	O2	0.443800	0.934100	0.047600
C11	C1	0.378600	0.877000	0.997200
O31	O3	0.333600	0.785400	0.142800
C21	C2	0.353700	0.860000	0.945900
H11	H1	0.366000	0.876800	0.911000
O41	O4	0.304600	0.830200	0.843100
C31	C3	0.421300	0.922100	0.000100
C41	C4	0.363200	0.848200	0.048000
H21	H2	0.380800	0.857900	0.083300
O51	O5	0.257600	0.757800	0.885900
C51	C5	0.320900	0.804300	0.045400
C61	C6	0.294200	0.790200	0.994900
H31	H3	0.265300	0.761700	0.993700
C71	C7	0.311100	0.819100	0.945300
O61	O6	0.268500	0.735700	0.099400
C81	C8	0.303100	0.778700	0.100500
C91	C9	0.288500	0.801500	0.886400
Zn21	Zn2	0.820860	0.237220	0.706900
O71	O7	0.937700	0.444100	0.453100
O81	O8	0.943800	0.434100	0.547600
C101	C10	0.878600	0.377000	0.497200
O91	O9	0.833600	0.285400	0.642800
C111	C11	0.853700	0.360000	0.445900
H41	H4	0.866000	0.376800	0.411000
O101	O10	0.804600	0.330200	0.343100
C121	C12	0.921300	0.422100	0.500100
C131	C13	0.863200	0.348200	0.548000
H51	H5	0.880800	0.357900	0.583300
O111	O11	0.757600	0.257800	0.385900
C141	C14	0.820900	0.304300	0.545400
C151	C15	0.794200	0.290200	0.494900
H61	H6	0.765300	0.261700	0.493700
C161	C16	0.811100	0.319100	0.445300
O121	O12	0.768500	0.235700	0.599400
C171	C17	0.803100	0.278700	0.600500
C181	C18	0.788500	0.301500	0.386400
Zn31	Zn3	0.679140	0.262780	0.206900
O131	O13	0.562300	0.055900	0.953100
O141	O14	0.556200	0.065900	0.047600
C191	C19	0.621400	0.123000	0.997200
O151	O15	0.666400	0.214600	0.142800
C201	C20	0.646300	0.140000	0.945900
H71	H7	0.634000	0.123200	0.911000
O161	O16	0.695400	0.169800	0.843100
C211	C21	0.578700	0.077900	0.000100
C221	C22	0.636800	0.151800	0.048000
H81	H8	0.619200	0.142100	0.083300
O171	O17	0.742400	0.242200	0.885900
C231	C23	0.679100	0.195700	0.045400
C241	C24	0.705800	0.209800	0.994900
H91	H9	0.734700	0.238300	0.993700
C251	C25	0.688900	0.180900	0.945300
O181	O18	0.731500	0.264300	0.099400
C261	C26	0.696900	0.221300	0.100500
C271	C27	0.711500	0.198500	0.886400
Zn41	Zn4	0.179140	0.762780	0.706900
O191	O19	0.062300	0.555900	0.453100
O201	O20	0.056200	0.565900	0.547600
C281	C28	0.121400	0.623000	0.497200
O211	O21	0.166400	0.714600	0.642800
C291	C29	0.146300	0.640000	0.445900
H101	H10	0.134000	0.623200	0.411000
O221	O22	0.195400	0.669800	0.343100
C301	C30	0.078700	0.577900	0.500100
C311	C31	0.136800	0.651800	0.548000
H111	H11	0.119200	0.642100	0.583300
O231	O23	0.242400	0.742200	0.385900
C321	C32	0.179100	0.695700	0.545400
C331	C33	0.205800	0.709800	0.494900
H121	H12	0.234700	0.738300	0.493700
C341	C34	0.188900	0.680900	0.445300
O241	O24	0.231500	0.764300	0.599400
C351	C35	0.196900	0.721300	0.600500
C361	C36	0.211500	0.698500	0.386400
Zn51	Zn5	0.679140	0.737220	0.793100
O251	O25	0.562300	0.944100	0.046900
O261	O26	0.556200	0.934100	0.952400
C371	C37	0.621400	0.877000	0.002800
O271	O27	0.666400	0.785400	0.857200
C381	C38	0.646300	0.860000	0.054100
H131	H13	0.634000	0.876800	0.089000
O281	O28	0.695400	0.830200	0.156900
C391	C39	0.578700	0.922100	0.999900
C401	C40	0.636800	0.848200	0.952000
H141	H14	0.619200	0.857900	0.916700
O291	O29	0.742400	0.757800	0.114100
C411	C41	0.679100	0.804300	0.954600
C421	C42	0.705800	0.790200	0.005100
H151	H15	0.734700	0.761700	0.006300
C431	C43	0.688900	0.819100	0.054700
O301	O30	0.731500	0.735700	0.900600
C441	C44	0.696900	0.778700	0.899500
C451	C45	0.711500	0.801500	0.113600
Zn61	Zn6	0.179140	0.237220	0.293100
O311	O31	0.062300	0.444100	0.546900
O321	O32	0.056200	0.434100	0.452400
C461	C46	0.121400	0.377000	0.502800
O331	O33	0.166400	0.285400	0.357200
C471	C47	0.146300	0.360000	0.554100
H161	H16	0.134000	0.376800	0.589000
O341	O34	0.195400	0.330200	0.656900
C481	C48	0.078700	0.422100	0.499900
C491	C49	0.136800	0.348200	0.452000
H171	H17	0.119200	0.357900	0.416700
O351	O35	0.242400	0.257800	0.614100
C501	C50	0.179100	0.304300	0.454600
C511	C51	0.205800	0.290200	0.505100
H181	H18	0.234700	0.261700	0.506300
C521	C52	0.188900	0.319100	0.554700
O361	O36	0.231500	0.235700	0.400600
C531	C53	0.196900	0.278700	0.399500
C541	C54	0.211500	0.301500	0.613600
Zn71	Zn7	0.320860	0.262780	0.793100
O371	O37	0.437700	0.055900	0.046900
O381	O38	0.443800	0.065900	0.952400
C551	C55	0.378600	0.123000	0.002800
O391	O39	0.333600	0.214600	0.857200
C561	C56	0.353700	0.140000	0.054100
H191	H19	0.366000	0.123200	0.089000
O401	O40	0.304600	0.169800	0.156900
C571	C57	0.421300	0.077900	0.999900
C581	C58	0.363200	0.151800	0.952000
H201	H20	0.380800	0.142100	0.916700
O411	O41	0.257600	0.242200	0.114100
C591	C59	0.320900	0.195700	0.954600
C601	C60	0.294200	0.209800	0.005100
H211	H21	0.265300	0.238300	0.006300
C611	C61	0.311100	0.180900	0.054700
O421	O42	0.268500	0.264300	0.900600
C621	C62	0.303100	0.221300	0.899500
C631	C63	0.288500	0.198500	0.113600
Zn81	Zn8	0.820860	0.762780	0.293100
O431	O43	0.937700	0.555900	0.546900
O441	O44	0.943800	0.565900	0.452400
C641	C64	0.878600	0.623000	0.502800
O451	O45	0.833600	0.714600	0.357200
C651	C65	0.853700	0.640000	0.554100
H221	H22	0.866000	0.623200	0.589000
O461	O46	0.804600	0.669800	0.656900
C661	C66	0.921300	0.577900	0.499900
C671	C67	0.863200	0.651800	0.452000
H231	H23	0.880800	0.642100	0.416700
O471	O47	0.757600	0.742200	0.614100
C681	C68	0.820900	0.695700	0.454600
C691	C69	0.794200	0.709800	0.505100
H241	H24	0.765300	0.738300	0.506300
C701	C70	0.811100	0.680900	0.554700
O481	O48	0.768500	0.764300	0.400600
C711	C71	0.803100	0.721300	0.399500
C721	C72	0.788500	0.698500	0.613600
Zn91	Zn9	0.206900	0.320860	0.737220
O491	O49	0.953100	0.437700	0.944100
O501	O50	0.047600	0.443800	0.934100
C731	C73	0.997200	0.378600	0.877000
O511	O51	0.142800	0.333600	0.785400
C741	C74	0.945900	0.353700	0.860000
H251	H25	0.911000	0.366000	0.876800
O521	O52	0.843100	0.304600	0.830200
C751	C75	0.000100	0.421300	0.922100
C761	C76	0.048000	0.363200	0.848200
H261	H26	0.083300	0.380800	0.857900
O531	O53	0.885900	0.257600	0.757800
C771	C77	0.045400	0.320900	0.804300
C781	C78	0.994900	0.294200	0.790200
H271	H27	0.993700	0.265300	0.761700
C791	C79	0.945300	0.311100	0.819100
O541	O54	0.099400	0.268500	0.735700
C801	C80	0.100500	0.303100	0.778700
C811	C81	0.886400	0.288500	0.801500
Zn101	Zn10	0.706900	0.820860	0.237220
O551	O55	0.453100	0.937700	0.444100
O561	O56	0.547600	0.943800	0.434100
C821	C82	0.497200	0.878600	0.377000
O571	O57	0.642800	0.833600	0.285400
C831	C83	0.445900	0.853700	0.360000
H281	H28	0.411000	0.866000	0.376800
O581	O58	0.343100	0.804600	0.330200
C841	C84	0.500100	0.921300	0.422100
C851	C85	0.548000	0.863200	0.348200
H291	H29	0.583300	0.880800	0.357900
O591	O59	0.385900	0.757600	0.257800
C861	C86	0.545400	0.820900	0.304300
C871	C87	0.494900	0.794200	0.290200
H301	H30	0.493700	0.765300	0.261700
C881	C88	0.445300	0.811100	0.319100
O601	O60	0.599400	0.768500	0.235700
C891	C89	0.600500	0.803100	0.278700
C901	C90	0.386400	0.788500	0.301500
Zn111	Zn11	0.206900	0.679140	0.262780
O611	O61	0.953100	0.562300	0.055900
O621	O62	0.047600	0.556200	0.065900
C911	C91	0.997200	0.621400	0.123000
O631	O63	0.142800	0.666400	0.214600
C921	C92	0.945900	0.646300	0.140000
H311	H31	0.911000	0.634000	0.123200
O641	O64	0.843100	0.695400	0.169800
C931	C93	0.000100	0.578700	0.077900
C941	C94	0.048000	0.636800	0.151800
H321	H32	0.083300	0.619200	0.142100
O651	O65	0.885900	0.742400	0.242200
C951	C95	0.045400	0.679100	0.195700
C961	C96	0.994900	0.705800	0.209800
H331	H33	0.993700	0.734700	0.238300
C971	C97	0.945300	0.688900	0.180900
O661	O66	0.099400	0.731500	0.264300
C981	C98	0.100500	0.696900	0.221300
C991	C99	0.886400	0.711500	0.198500
Zn121	Zn12	0.706900	0.179140	0.762780
O671	O67	0.453100	0.062300	0.555900
O681	O68	0.547600	0.056200	0.565900
C1001	C100	0.497200	0.121400	0.623000
O691	O69	0.642800	0.166400	0.714600
C1011	C101	0.445900	0.146300	0.640000
H341	H34	0.411000	0.134000	0.623200
O701	O70	0.343100	0.195400	0.669800
C1021	C102	0.500100	0.078700	0.577900
C1031	C103	0.548000	0.136800	0.651800
H351	H35	0.583300	0.119200	0.642100
O711	O71	0.385900	0.242400	0.742200
C1041	C104	0.545400	0.179100	0.695700
C1051	C105	0.494900	0.205800	0.709800
H361	H36	0.493700	0.234700	0.738300
C1061	C106	0.445300	0.188900	0.680900
O721	O72	0.599400	0.231500	0.764300
C1071	C107	0.600500	0.196900	0.721300
C1081	C108	0.386400	0.211500	0.698500
Zn131	Zn13	0.793100	0.679140	0.737220
O731	O73	0.046900	0.562300	0.944100
O741	O74	0.952400	0.556200	0.934100
C1091	C109	0.002800	0.621400	0.877000
O751	O75	0.857200	0.666400	0.785400
C1101	C110	0.054100	0.646300	0.860000
H371	H37	0.089000	0.634000	0.876800
O761	O76	0.156900	0.695400	0.830200
C1111	C111	0.999900	0.578700	0.922100
C1121	C112	0.952000	0.636800	0.848200
H381	H38	0.916700	0.619200	0.857900
O771	O77	0.114100	0.742400	0.757800
C1131	C113	0.954600	0.679100	0.804300
C1141	C114	0.005100	0.705800	0.790200
H391	H39	0.006300	0.734700	0.761700
C1151	C115	0.054700	0.688900	0.819100
O781	O78	0.900600	0.731500	0.735700
C1161	C116	0.899500	0.696900	0.778700
C1171	C117	0.113600	0.711500	0.801500
Zn141	Zn14	0.293100	0.179140	0.237220
O791	O79	0.546900	0.062300	0.444100
O801	O80	0.452400	0.056200	0.434100
C1181	C118	0.502800	0.121400	0.377000
O811	O81	0.357200	0.166400	0.285400
C1191	C119	0.554100	0.146300	0.360000
H401	H40	0.589000	0.134000	0.376800
O821	O82	0.656900	0.195400	0.330200
C1201	C120	0.499900	0.078700	0.422100
C1211	C121	0.452000	0.136800	0.348200
H411	H41	0.416700	0.119200	0.357900
O831	O83	0.614100	0.242400	0.257800
C1221	C122	0.454600	0.179100	0.304300
C1231	C123	0.505100	0.205800	0.290200
H421	H42	0.506300	0.234700	0.261700
C1241	C124	0.554700	0.188900	0.319100
O841	O84	0.400600	0.231500	0.235700
C1251	C125	0.399500	0.196900	0.278700
C1261	C126	0.613600	0.211500	0.301500
Zn151	Zn15	0.793100	0.320860	0.262780
O851	O85	0.046900	0.437700	0.055900
O861	O86	0.952400	0.443800	0.065900
C1271	C127	0.002800	0.378600	0.123000
O871	O87	0.857200	0.333600	0.214600
C1281	C128	0.054100	0.353700	0.140000
H431	H43	0.089000	0.366000	0.123200
O881	O88	0.156900	0.304600	0.169800
C1291	C129	0.999900	0.421300	0.077900
C1301	C130	0.952000	0.363200	0.151800
H441	H44	0.916700	0.380800	0.142100
O891	O89	0.114100	0.257600	0.242200
C1311	C131	0.954600	0.320900	0.195700
C1321	C132	0.005100	0.294200	0.209800
H451	H45	0.006300	0.265300	0.238300
C1331	C133	0.054700	0.311100	0.180900
O901	O90	0.900600	0.268500	0.264300
C1341	C134	0.899500	0.303100	0.221300
C1351	C135	0.113600	0.288500	0.198500
Zn161	Zn16	0.293100	0.820860	0.762780
O911	O91	0.546900	0.937700	0.555900
O921	O92	0.452400	0.943800	0.565900
C1361	C136	0.502800	0.878600	0.623000
O931	O93	0.357200	0.833600	0.714600
C1371	C137	0.554100	0.853700	0.640000
H461	H46	0.589000	0.866000	0.623200
O941	O94	0.656900	0.804600	0.669800
C1381	C138	0.499900	0.921300	0.577900
C1391	C139	0.452000	0.863200	0.651800
H471	H47	0.416700	0.880800	0.642100
O951	O95	0.614100	0.757600	0.742200
C1401	C140	0.454600	0.820900	0.695700
C1411	C141	0.505100	0.794200	0.709800
H481	H48	0.506300	0.765300	0.738300
C1421	C142	0.554700	0.811100	0.680900
O961	O96	0.400600	0.768500	0.764300
C1431	C143	0.399500	0.803100	0.721300
C1441	C144	0.613600	0.788500	0.698500
Zn171	Zn17	0.737220	0.206900	0.320860
O971	O97	0.944100	0.953100	0.437700
O981	O98	0.934100	0.047600	0.443800
C1451	C145	0.877000	0.997200	0.378600
O991	O99	0.785400	0.142800	0.333600
C1461	C146	0.860000	0.945900	0.353700
H491	H49	0.876800	0.911000	0.366000
O1001	O100	0.830200	0.843100	0.304600
C1471	C147	0.922100	0.000100	0.421300
C1481	C148	0.848200	0.048000	0.363200
H501	H50	0.857900	0.083300	0.380800
O1011	O101	0.757800	0.885900	0.257600
C1491	C149	0.804300	0.045400	0.320900
C1501	C150	0.790200	0.994900	0.294200
H511	H51	0.761700	0.993700	0.265300
C1511	C151	0.819100	0.945300	0.311100
O1021	O102	0.735700	0.099400	0.268500
C1521	C152	0.778700	0.100500	0.303100
C1531	C153	0.801500	0.886400	0.288500
Zn181	Zn18	0.237220	0.706900	0.820860
O1031	O103	0.444100	0.453100	0.937700
O1041	O104	0.434100	0.547600	0.943800
C1541	C154	0.377000	0.497200	0.878600
O1051	O105	0.285400	0.642800	0.833600
C1551	C155	0.360000	0.445900	0.853700
H521	H52	0.376800	0.411000	0.866000
O1061	O106	0.330200	0.343100	0.804600
C1561	C156	0.422100	0.500100	0.921300
C1571	C157	0.348200	0.548000	0.863200
H531	H53	0.357900	0.583300	0.880800
O1071	O107	0.257800	0.385900	0.757600
C1581	C158	0.304300	0.545400	0.820900
C1591	C159	0.290200	0.494900	0.794200
H541	H54	0.261700	0.493700	0.765300
C1601	C160	0.319100	0.445300	0.811100
O1081	O108	0.235700	0.599400	0.768500
C1611	C161	0.278700	0.600500	0.803100
C1621	C162	0.301500	0.386400	0.788500
Zn191	Zn19	0.262780	0.206900	0.679140
O1091	O109	0.055900	0.953100	0.562300
O1101	O110	0.065900	0.047600	0.556200
C1631	C163	0.123000	0.997200	0.621400
O1111	O111	0.214600	0.142800	0.666400
C1641	C164	0.140000	0.945900	0.646300
H551	H55	0.123200	0.911000	0.634000
O1121	O112	0.169800	0.843100	0.695400
C1651	C165	0.077900	0.000100	0.578700
C1661	C166	0.151800	0.048000	0.636800
H561	H56	0.142100	0.083300	0.619200
O1131	O113	0.242200	0.885900	0.742400
C1671	C167	0.195700	0.045400	0.679100
C1681	C168	0.209800	0.994900	0.705800
H571	H57	0.238300	0.993700	0.734700
C1691	C169	0.180900	0.945300	0.688900
O1141	O114	0.264300	0.099400	0.731500
C1701	C170	0.221300	0.100500	0.696900
C1711	C171	0.198500	0.886400	0.711500
Zn201	Zn20	0.762780	0.706900	0.179140
O1151	O115	0.555900	0.453100	0.062300
O1161	O116	0.565900	0.547600	0.056200
C1721	C172	0.623000	0.497200	0.121400
O1171	O117	0.714600	0.642800	0.166400
C1731	C173	0.640000	0.445900	0.146300
H581	H58	0.623200	0.411000	0.134000
O1181	O118	0.669800	0.343100	0.195400
C1741	C174	0.577900	0.500100	0.078700
C1751	C175	0.651800	0.548000	0.136800
H591	H59	0.642100	0.583300	0.119200
O1191	O119	0.742200	0.385900	0.242400
C1761	C176	0.695700	0.545400	0.179100
C1771	C177	0.709800	0.494900	0.205800
H601	H60	0.738300	0.493700	0.234700
C1781	C178	0.680900	0.445300	0.188900
O1201	O120	0.764300	0.599400	0.231500
C1791	C179	0.721300	0.600500	0.196900
C1801	C180	0.698500	0.386400	0.211500
Zn211	Zn21	0.737220	0.793100	0.679140
O1211	O121	0.944100	0.046900	0.562300
O1221	O122	0.934100	0.952400	0.556200
C1811	C181	0.877000	0.002800	0.621400
O1231	O123	0.785400	0.857200	0.666400
C1821	C182	0.860000	0.054100	0.646300
H611	H61	0.876800	0.089000	0.634000
O1241	O124	0.830200	0.156900	0.695400
C1831	C183	0.922100	0.999900	0.578700
C1841	C184	0.848200	0.952000	0.636800
H621	H62	0.857900	0.916700	0.619200
O1251	O125	0.757800	0.114100	0.742400
C1851	C185	0.804300	0.954600	0.679100
C1861	C186	0.790200	0.005100	0.705800
H631	H63	0.761700	0.006300	0.734700
C1871	C187	0.819100	0.054700	0.688900
O1261	O126	0.735700	0.900600	0.731500
C1881	C188	0.778700	0.899500	0.696900
C1891	C189	0.801500	0.113600	0.711500
Zn221	Zn22	0.237220	0.293100	0.179140
O1271	O127	0.444100	0.546900	0.062300
O1281	O128	0.434100	0.452400	0.056200
C1901	C190	0.377000	0.502800	0.121400
O1291	O129	0.285400	0.357200	0.166400
C1911	C191	0.360000	0.554100	0.146300
H641	H64	0.376800	0.589000	0.134000
O1301	O130	0.330200	0.656900	0.195400
C1921	C192	0.422100	0.499900	0.078700
C1931	C193	0.348200	0.452000	0.136800
H651	H65	0.357900	0.416700	0.119200
O1311	O131	0.257800	0.614100	0.242400
C1941	C194	0.304300	0.454600	0.179100
C1951	C195	0.290200	0.505100	0.205800
H661	H66	0.261700	0.506300	0.234700
C1961	C196	0.319100	0.554700	0.188900
O1321	O132	0.235700	0.400600	0.231500
C1971	C197	0.278700	0.399500	0.196900
C1981	C198	0.301500	0.613600	0.211500
Zn231	Zn23	0.262780	0.793100	0.320860
O1331	O133	0.055900	0.046900	0.437700
O1341	O134	0.065900	0.952400	0.443800
C1991	C199	0.123000	0.002800	0.378600
O1351	O135	0.214600	0.857200	0.333600
C2001	C200	0.140000	0.054100	0.353700
H671	H67	0.123200	0.089000	0.366000
O1361	O136	0.169800	0.156900	0.304600
C2011	C201	0.077900	0.999900	0.421300
C2021	C202	0.151800	0.952000	0.363200
H681	H68	0.142100	0.916700	0.380800
O1371	O137	0.242200	0.114100	0.257600
C2031	C203	0.195700	0.954600	0.320900
C2041	C204	0.209800	0.005100	0.294200
H691	H69	0.238300	0.006300	0.265300
C2051	C205	0.180900	0.054700	0.311100
O1381	O138	0.264300	0.900600	0.268500
C2061	C206	0.221300	0.899500	0.303100
C2071	C207	0.198500	0.113600	0.288500
Zn241	Zn24	0.762780	0.293100	0.820860
O1391	O139	0.555900	0.546900	0.937700
O1401	O140	0.565900	0.452400	0.943800
C2081	C208	0.623000	0.502800	0.878600
O1411	O141	0.714600	0.357200	0.833600
C2091	C209	0.640000	0.554100	0.853700
H701	H70	0.623200	0.589000	0.866000
O1421	O142	0.669800	0.656900	0.804600
C2101	C210	0.577900	0.499900	0.921300
C2111	C211	0.651800	0.452000	0.863200
H711	H71	0.642100	0.416700	0.880800
O1431	O143	0.742200	0.614100	0.757600
C2121	C212	0.695700	0.454600	0.820900
C2131	C213	0.709800	0.505100	0.794200
H721	H72	0.738300	0.506300	0.765300
C2141	C214	0.680900	0.554700	0.811100
O1441	O144	0.764300	0.400600	0.768500
C2151	C215	0.721300	0.399500	0.803100
C2161	C216	0.698500	0.613600	0.788500
Zn251	Zn25	0.500000	0.000000	0.936240
Zn261	Zn26	0.000000	0.500000	0.436240
Zn271	Zn27	0.500000	0.000000	0.063760
Zn281	Zn28	0.000000	0.500000	0.563760
Zn291	Zn29	0.936240	0.500000	0.000000
Zn301	Zn30	0.436240	0.000000	0.500000
Zn311	Zn31	0.063760	0.500000	0.000000
Zn321	Zn32	0.563760	0.000000	0.500000
Zn331	Zn33	0.000000	0.936240	0.500000
Zn341	Zn34	0.500000	0.436240	0.000000
Zn351	Zn35	0.000000	0.063760	0.500000
Zn361	Zn36	0.500000	0.563760	0.000000
O1451	O145	0.249900	0.750100	0.249900
O1461	O146	0.749900	0.250100	0.749900
O1471	O147	0.750100	0.249900	0.249900
O1481	O148	0.250100	0.749900	0.749900
O1491	O149	0.750100	0.750100	0.750100
O1501	O150	0.250100	0.250100	0.250100
O1511	O151	0.249900	0.249900	0.750100
O1521	O152	0.749900	0.749900	0.250100
