data_XATLIQ_clean_PM
_symmetry_space_group_name_H-M	'P1'
_cell_length_a	18.640000
_cell_length_b	22.795000
_cell_length_c	13.281000
_cell_angle_alpha	90.000000
_cell_angle_beta	130.484000
_cell_angle_gamma	90.000000
_symmetry_Int_Tables_number 1

loop_
_symmetry_equiv_pos_as_xyz
'x,y,z'

loop_
_atom_site_label
_atom_site_type_symbol
_atom_site_fract_x
_atom_site_fract_y
_atom_site_fract_z
O11	O1	0.614060	0.291860	0.432450
O21	O2	0.489310	0.241940	0.372570
O31	O3	0.839970	0.665660	0.063930
O41	O4	0.908500	0.603400	0.227200
C11	C1	0.547500	0.283800	0.431700
C21	C2	0.533590	0.325720	0.504700
C31	C3	0.584900	0.376660	0.556000
H11	H1	0.626900	0.385800	0.542800
C41	C4	0.574700	0.414570	0.627100
H21	H2	0.610200	0.448800	0.661000
C51	C5	0.513170	0.403090	0.649500
C61	C6	0.461000	0.351920	0.594300
H31	H3	0.418000	0.342900	0.605900
C71	C7	0.470500	0.314060	0.523100
H41	H4	0.433900	0.280200	0.487000
C81	C8	0.840690	0.616970	0.111400
C91	C9	0.759110	0.576160	0.023800
C101	C10	0.691920	0.587110	0.890400
H51	H5	0.697600	0.619800	0.854000
C111	C11	0.615560	0.549570	0.809700
H61	H6	0.570300	0.557600	0.719700
C121	C12	0.605580	0.499800	0.861600
C131	C13	0.675440	0.489860	0.995800
H71	H7	0.670900	0.457000	0.032900
C141	C14	0.751330	0.526680	0.076200
H81	H8	0.797400	0.518300	0.166000
O51	O5	0.114060	0.791860	0.432450
O61	O6	0.989310	0.741940	0.372570
O71	O7	0.339970	0.165660	0.063930
O81	O8	0.408500	0.103400	0.227200
C151	C15	0.047500	0.783800	0.431700
C161	C16	0.033590	0.825720	0.504700
C171	C17	0.084900	0.876660	0.556000
H91	H9	0.126900	0.885800	0.542800
C181	C18	0.074700	0.914570	0.627100
H101	H10	0.110200	0.948800	0.661000
C191	C19	0.013170	0.903090	0.649500
C201	C20	0.961000	0.851920	0.594300
H111	H11	0.918000	0.842900	0.605900
C211	C21	0.970500	0.814060	0.523100
H121	H12	0.933900	0.780200	0.487000
C221	C22	0.340690	0.116970	0.111400
C231	C23	0.259110	0.076160	0.023800
C241	C24	0.191920	0.087110	0.890400
H131	H13	0.197600	0.119800	0.854000
C251	C25	0.115560	0.049570	0.809700
H141	H14	0.070300	0.057600	0.719700
C261	C26	0.105580	0.999800	0.861600
C271	C27	0.175440	0.989860	0.995800
H151	H15	0.170900	0.957000	0.032900
C281	C28	0.251330	0.026680	0.076200
H161	H16	0.297400	0.018300	0.166000
O91	O9	0.385940	0.291860	0.067550
O101	O10	0.510690	0.241940	0.127430
O111	O11	0.160030	0.665660	0.436070
O121	O12	0.091500	0.603400	0.272800
C291	C29	0.452500	0.283800	0.068300
C301	C30	0.466410	0.325720	0.995300
C311	C31	0.415100	0.376660	0.944000
H171	H17	0.373100	0.385800	0.957200
C321	C32	0.425300	0.414570	0.872900
H181	H18	0.389800	0.448800	0.839000
C331	C33	0.486830	0.403090	0.850500
C341	C34	0.539000	0.351920	0.905700
H191	H19	0.582000	0.342900	0.894100
C351	C35	0.529500	0.314060	0.976900
H201	H20	0.566100	0.280200	0.013000
C361	C36	0.159310	0.616970	0.388600
C371	C37	0.240890	0.576160	0.476200
C381	C38	0.308080	0.587110	0.609600
H211	H21	0.302400	0.619800	0.646000
C391	C39	0.384440	0.549570	0.690300
H221	H22	0.429700	0.557600	0.780300
C401	C40	0.394420	0.499800	0.638400
C411	C41	0.324560	0.489860	0.504200
H231	H23	0.329100	0.457000	0.467100
C421	C42	0.248670	0.526680	0.423800
H241	H24	0.202600	0.518300	0.334000
O131	O13	0.885940	0.791860	0.067550
O141	O14	0.010690	0.741940	0.127430
O151	O15	0.660030	0.165660	0.436070
O161	O16	0.591500	0.103400	0.272800
C431	C43	0.952500	0.783800	0.068300
C441	C44	0.966410	0.825720	0.995300
C451	C45	0.915100	0.876660	0.944000
H251	H25	0.873100	0.885800	0.957200
C461	C46	0.925300	0.914570	0.872900
H261	H26	0.889800	0.948800	0.839000
C471	C47	0.986830	0.903090	0.850500
C481	C48	0.039000	0.851920	0.905700
H271	H27	0.082000	0.842900	0.894100
C491	C49	0.029500	0.814060	0.976900
H281	H28	0.066100	0.780200	0.013000
C501	C50	0.659310	0.116970	0.388600
C511	C51	0.740890	0.076160	0.476200
C521	C52	0.808080	0.087110	0.609600
H291	H29	0.802400	0.119800	0.646000
C531	C53	0.884440	0.049570	0.690300
H301	H30	0.929700	0.057600	0.780300
C541	C54	0.894420	0.999800	0.638400
C551	C55	0.824560	0.989860	0.504200
H311	H31	0.829100	0.957000	0.467100
C561	C56	0.748670	0.026680	0.423800
H321	H32	0.702600	0.018300	0.334000
O171	O17	0.385940	0.708140	0.567550
O181	O18	0.510690	0.758060	0.627430
O191	O19	0.160030	0.334340	0.936070
O201	O20	0.091500	0.396600	0.772800
C571	C57	0.452500	0.716200	0.568300
C581	C58	0.466410	0.674280	0.495300
C591	C59	0.415100	0.623340	0.444000
H331	H33	0.373100	0.614200	0.457200
C601	C60	0.425300	0.585430	0.372900
H341	H34	0.389800	0.551200	0.339000
C611	C61	0.486830	0.596910	0.350500
C621	C62	0.539000	0.648080	0.405700
H351	H35	0.582000	0.657100	0.394100
C631	C63	0.529500	0.685940	0.476900
H361	H36	0.566100	0.719800	0.513000
C641	C64	0.159310	0.383030	0.888600
C651	C65	0.240890	0.423840	0.976200
C661	C66	0.308080	0.412890	0.109600
H371	H37	0.302400	0.380200	0.146000
C671	C67	0.384440	0.450430	0.190300
H381	H38	0.429700	0.442400	0.280300
C681	C68	0.394420	0.500200	0.138400
C691	C69	0.324560	0.510140	0.004200
H391	H39	0.329100	0.543000	0.967100
C701	C70	0.248670	0.473320	0.923800
H401	H40	0.202600	0.481700	0.834000
O211	O21	0.885940	0.208140	0.567550
O221	O22	0.010690	0.258060	0.627430
O231	O23	0.660030	0.834340	0.936070
O241	O24	0.591500	0.896600	0.772800
C711	C71	0.952500	0.216200	0.568300
C721	C72	0.966410	0.174280	0.495300
C731	C73	0.915100	0.123340	0.444000
H411	H41	0.873100	0.114200	0.457200
C741	C74	0.925300	0.085430	0.372900
H421	H42	0.889800	0.051200	0.339000
C751	C75	0.986830	0.096910	0.350500
C761	C76	0.039000	0.148080	0.405700
H431	H43	0.082000	0.157100	0.394100
C771	C77	0.029500	0.185940	0.476900
H441	H44	0.066100	0.219800	0.513000
C781	C78	0.659310	0.883030	0.888600
C791	C79	0.740890	0.923840	0.976200
C801	C80	0.808080	0.912890	0.109600
H451	H45	0.802400	0.880200	0.146000
C811	C81	0.884440	0.950430	0.190300
H461	H46	0.929700	0.942400	0.280300
C821	C82	0.894420	0.000200	0.138400
C831	C83	0.824560	0.010140	0.004200
H471	H47	0.829100	0.043000	0.967100
C841	C84	0.748670	0.973320	0.923800
H481	H48	0.702600	0.981700	0.834000
O251	O25	0.614060	0.708140	0.932450
O261	O26	0.489310	0.758060	0.872570
O271	O27	0.839970	0.334340	0.563930
O281	O28	0.908500	0.396600	0.727200
C851	C85	0.547500	0.716200	0.931700
C861	C86	0.533590	0.674280	0.004700
C871	C87	0.584900	0.623340	0.056000
H491	H49	0.626900	0.614200	0.042800
C881	C88	0.574700	0.585430	0.127100
H501	H50	0.610200	0.551200	0.161000
C891	C89	0.513170	0.596910	0.149500
C901	C90	0.461000	0.648080	0.094300
H511	H51	0.418000	0.657100	0.105900
C911	C91	0.470500	0.685940	0.023100
H521	H52	0.433900	0.719800	0.987000
C921	C92	0.840690	0.383030	0.611400
C931	C93	0.759110	0.423840	0.523800
C941	C94	0.691920	0.412890	0.390400
H531	H53	0.697600	0.380200	0.354000
C951	C95	0.615560	0.450430	0.309700
H541	H54	0.570300	0.442400	0.219700
C961	C96	0.605580	0.500200	0.361600
C971	C97	0.675440	0.510140	0.495800
H551	H55	0.670900	0.543000	0.532900
C981	C98	0.751330	0.473320	0.576200
H561	H56	0.797400	0.481700	0.666000
O291	O29	0.114060	0.208140	0.932450
O301	O30	0.989310	0.258060	0.872570
O311	O31	0.339970	0.834340	0.563930
O321	O32	0.408500	0.896600	0.727200
C991	C99	0.047500	0.216200	0.931700
C1001	C100	0.033590	0.174280	0.004700
C1011	C101	0.084900	0.123340	0.056000
H571	H57	0.126900	0.114200	0.042800
C1021	C102	0.074700	0.085430	0.127100
H581	H58	0.110200	0.051200	0.161000
C1031	C103	0.013170	0.096910	0.149500
C1041	C104	0.961000	0.148080	0.094300
H591	H59	0.918000	0.157100	0.105900
C1051	C105	0.970500	0.185940	0.023100
H601	H60	0.933900	0.219800	0.987000
C1061	C106	0.340690	0.883030	0.611400
C1071	C107	0.259110	0.923840	0.523800
C1081	C108	0.191920	0.912890	0.390400
H611	H61	0.197600	0.880200	0.354000
C1091	C109	0.115560	0.950430	0.309700
H621	H62	0.070300	0.942400	0.219700
C1101	C110	0.105580	0.000200	0.361600
C1111	C111	0.175440	0.010140	0.495800
H631	H63	0.170900	0.043000	0.532900
C1121	C112	0.251330	0.973320	0.576200
H641	H64	0.297400	0.981700	0.666000
Cd11	Cd1	0.500000	0.183800	0.250000
Cd21	Cd2	0.000000	0.683800	0.250000
Cd31	Cd3	0.500000	0.816200	0.750000
Cd41	Cd4	0.000000	0.316200	0.750000
Cd51	Cd5	0.750000	0.250000	0.500000
Cd61	Cd6	0.250000	0.250000	0.000000
Cd71	Cd7	0.250000	0.750000	0.500000
Cd81	Cd8	0.750000	0.750000	0.000000
Si11	Si1	0.500000	0.451570	0.750000
Si21	Si2	0.000000	0.951570	0.750000
Si31	Si3	0.500000	0.548430	0.250000
Si41	Si4	0.000000	0.048430	0.250000
