data_XATZUQ_clean_PM
_symmetry_space_group_name_H-M	'P1'
_cell_length_a	14.123000
_cell_length_b	36.166000
_cell_length_c	18.341000
_cell_angle_alpha	90.000000
_cell_angle_beta	99.380000
_cell_angle_gamma	90.000000
_symmetry_Int_Tables_number 1

loop_
_symmetry_equiv_pos_as_xyz
'x,y,z'

loop_
_atom_site_label
_atom_site_type_symbol
_atom_site_fract_x
_atom_site_fract_y
_atom_site_fract_z
Zn11	Zn1	0.777630	0.572990	0.114910
C11	C1	0.316900	0.636600	0.055200
H11	H1	0.359500	0.616900	0.064500
O11	O1	0.752100	0.448940	0.706300
C21	C2	0.791500	0.433900	0.761300
C31	C3	0.875000	0.462600	0.871000
H21	H2	0.931600	0.456900	0.853800
C41	C4	0.479300	0.845100	0.948000
N11	N1	0.614600	0.894490	0.910700
C51	C5	0.790800	0.451400	0.834500
O21	O2	0.828900	0.404500	0.754500
O31	O3	0.738100	0.540250	0.029600
C61	C6	0.804400	0.516700	0.028800
C71	C7	0.796700	0.490800	0.964000
C81	C8	0.707500	0.476200	0.929100
C91	C9	0.622700	0.479430	0.960600
H31	H3	0.624000	0.491800	0.005100
C101	C10	0.537800	0.464100	0.924900
H41	H4	0.482200	0.466500	0.945500
C111	C11	0.535200	0.446000	0.861700
H51	H5	0.477300	0.436200	0.838200
C121	C12	0.617300	0.441500	0.829800
H61	H6	0.614200	0.428500	0.785700
C131	C13	0.705300	0.456640	0.864400
C141	C14	0.876500	0.482200	0.933900
H71	H7	0.935700	0.490500	0.958300
O41	O4	0.876100	0.516060	0.077400
N21	N2	0.663600	0.610480	0.089500
C151	C15	0.643200	0.633900	0.137800
H81	H8	0.679600	0.634200	0.184800
C161	C16	0.564900	0.659600	0.119700
H91	H9	0.550800	0.676300	0.154900
C171	C17	0.511700	0.659300	0.050900
C181	C18	0.431900	0.686300	0.031900
C191	C19	0.456900	0.722800	0.017100
C201	C20	0.552200	0.734900	0.009200
H101	H10	0.607800	0.720700	0.016700
C211	C21	0.545200	0.770300	0.989100
H111	H11	0.595100	0.785400	0.979600
C221	C22	0.446600	0.780900	0.985000
C231	C23	0.411000	0.815800	0.965500
N31	N3	0.394900	0.751440	0.002200
N41	N4	0.258600	0.695450	0.025500
C241	C24	0.533300	0.634200	0.000200
H121	H12	0.498200	0.633000	0.952700
C251	C25	0.610200	0.610500	0.023200
H131	H13	0.625200	0.593400	0.989100
C261	C26	0.554200	0.877900	0.864100
H141	H14	0.556300	0.881500	0.814100
C271	C27	0.483500	0.854100	0.884000
H151	H15	0.437400	0.844700	0.846500
C281	C28	0.542600	0.863800	0.001600
H161	H16	0.539600	0.860200	0.051400
C291	C29	0.220800	0.635800	0.056200
H171	H17	0.185300	0.615400	0.066600
C301	C30	0.339900	0.674200	0.036700
C311	C31	0.315500	0.828000	0.961700
C321	C32	0.609200	0.887400	0.981200
H181	H18	0.652300	0.899000	0.017800
Zn21	Zn2	0.722370	0.072990	0.385090
C331	C33	0.183100	0.136600	0.444800
H191	H19	0.140500	0.116900	0.435500
O51	O5	0.747900	0.948940	0.793700
C341	C34	0.708500	0.933900	0.738700
C351	C35	0.625000	0.962600	0.629000
H201	H20	0.568400	0.956900	0.646200
C361	C36	0.020700	0.345100	0.552000
N51	N5	0.885400	0.394490	0.589300
C371	C37	0.709200	0.951400	0.665500
O61	O6	0.671100	0.904500	0.745500
O71	O7	0.761900	0.040250	0.470400
C381	C38	0.695600	0.016700	0.471200
C391	C39	0.703300	0.990800	0.536000
C401	C40	0.792500	0.976200	0.570900
C411	C41	0.877300	0.979430	0.539400
H211	H21	0.876000	0.991800	0.494900
C421	C42	0.962200	0.964100	0.575100
H221	H22	0.017800	0.966500	0.554500
C431	C43	0.964800	0.946000	0.638300
H231	H23	0.022700	0.936200	0.661800
C441	C44	0.882700	0.941500	0.670200
H241	H24	0.885800	0.928500	0.714300
C451	C45	0.794700	0.956640	0.635600
C461	C46	0.623500	0.982200	0.566100
H251	H25	0.564300	0.990500	0.541700
O81	O8	0.623900	0.016060	0.422600
N61	N6	0.836400	0.110480	0.410500
C471	C47	0.856800	0.133900	0.362200
H261	H26	0.820400	0.134200	0.315200
C481	C48	0.935100	0.159600	0.380300
H271	H27	0.949200	0.176300	0.345100
C491	C49	0.988300	0.159300	0.449100
C501	C50	0.068100	0.186300	0.468100
C511	C51	0.043100	0.222800	0.482900
C521	C52	0.947800	0.234900	0.490800
H281	H28	0.892200	0.220700	0.483300
C531	C53	0.954800	0.270300	0.510900
H291	H29	0.904900	0.285400	0.520400
C541	C54	0.053400	0.280900	0.515000
C551	C55	0.089000	0.315800	0.534500
N71	N7	0.105100	0.251440	0.497800
N81	N8	0.241400	0.195450	0.474500
C561	C56	0.966700	0.134200	0.499800
H301	H30	0.001800	0.133000	0.547300
C571	C57	0.889800	0.110500	0.476800
H311	H31	0.874800	0.093400	0.510900
C581	C58	0.945800	0.377900	0.635900
H321	H32	0.943700	0.381500	0.685900
C591	C59	0.016500	0.354100	0.616000
H331	H33	0.062600	0.344700	0.653500
C601	C60	0.957400	0.363800	0.498400
H341	H34	0.960400	0.360200	0.448600
C611	C61	0.279200	0.135800	0.443800
H351	H35	0.314700	0.115400	0.433400
C621	C62	0.160100	0.174200	0.463300
C631	C63	0.184500	0.328000	0.538300
C641	C64	0.890800	0.387400	0.518800
H361	H36	0.847700	0.399000	0.482200
Zn31	Zn3	0.722370	0.927010	0.885090
C651	C65	0.183100	0.863400	0.944800
H371	H37	0.140500	0.883100	0.935500
O91	O9	0.747900	0.051060	0.293700
C661	C66	0.708500	0.066100	0.238700
C671	C67	0.625000	0.037400	0.129000
H381	H38	0.568400	0.043100	0.146200
C681	C68	0.020700	0.654900	0.052000
N91	N9	0.885400	0.605510	0.089300
C691	C69	0.709200	0.048600	0.165500
O101	O10	0.671100	0.095500	0.245500
O111	O11	0.761900	0.959750	0.970400
C701	C70	0.695600	0.983300	0.971200
C711	C71	0.703300	0.009200	0.036000
C721	C72	0.792500	0.023800	0.070900
C731	C73	0.877300	0.020570	0.039400
H391	H39	0.876000	0.008200	0.994900
C741	C74	0.962200	0.035900	0.075100
H401	H40	0.017800	0.033500	0.054500
C751	C75	0.964800	0.054000	0.138300
H411	H41	0.022700	0.063800	0.161800
C761	C76	0.882700	0.058500	0.170200
H421	H42	0.885800	0.071500	0.214300
C771	C77	0.794700	0.043360	0.135600
C781	C78	0.623500	0.017800	0.066100
H431	H43	0.564300	0.009500	0.041700
O121	O12	0.623900	0.983940	0.922600
N101	N10	0.836400	0.889520	0.910500
C791	C79	0.856800	0.866100	0.862200
H441	H44	0.820400	0.865800	0.815200
C801	C80	0.935100	0.840400	0.880300
H451	H45	0.949200	0.823700	0.845100
C811	C81	0.988300	0.840700	0.949100
C821	C82	0.068100	0.813700	0.968100
C831	C83	0.043100	0.777200	0.982900
C841	C84	0.947800	0.765100	0.990800
H461	H46	0.892200	0.779300	0.983300
C851	C85	0.954800	0.729700	0.010900
H471	H47	0.904900	0.714600	0.020400
C861	C86	0.053400	0.719100	0.015000
C871	C87	0.089000	0.684200	0.034500
N111	N11	0.105100	0.748560	0.997800
N121	N12	0.241400	0.804550	0.974500
C881	C88	0.966700	0.865800	0.999800
H481	H48	0.001800	0.867000	0.047300
C891	C89	0.889800	0.889500	0.976800
H491	H49	0.874800	0.906600	0.010900
C901	C90	0.945800	0.622100	0.135900
H501	H50	0.943700	0.618500	0.185900
C911	C91	0.016500	0.645900	0.116000
H511	H51	0.062600	0.655300	0.153500
C921	C92	0.957400	0.636200	0.998400
H521	H52	0.960400	0.639800	0.948600
C931	C93	0.279200	0.864200	0.943800
H531	H53	0.314700	0.884600	0.933400
C941	C94	0.160100	0.825800	0.963300
C951	C95	0.184500	0.672000	0.038300
C961	C96	0.890800	0.612600	0.018800
H541	H54	0.847700	0.601000	0.982200
Zn41	Zn4	0.777630	0.427010	0.614910
C971	C97	0.316900	0.363400	0.555200
H551	H55	0.359500	0.383100	0.564500
O131	O13	0.752100	0.551060	0.206300
C981	C98	0.791500	0.566100	0.261300
C991	C99	0.875000	0.537400	0.371000
H561	H56	0.931600	0.543100	0.353800
C1001	C100	0.479300	0.154900	0.448000
N131	N13	0.614600	0.105510	0.410700
C1011	C101	0.790800	0.548600	0.334500
O141	O14	0.828900	0.595500	0.254500
O151	O15	0.738100	0.459750	0.529600
C1021	C102	0.804400	0.483300	0.528800
C1031	C103	0.796700	0.509200	0.464000
C1041	C104	0.707500	0.523800	0.429100
C1051	C105	0.622700	0.520570	0.460600
H571	H57	0.624000	0.508200	0.505100
C1061	C106	0.537800	0.535900	0.424900
H581	H58	0.482200	0.533500	0.445500
C1071	C107	0.535200	0.554000	0.361700
H591	H59	0.477300	0.563800	0.338200
C1081	C108	0.617300	0.558500	0.329800
H601	H60	0.614200	0.571500	0.285700
C1091	C109	0.705300	0.543360	0.364400
C1101	C110	0.876500	0.517800	0.433900
H611	H61	0.935700	0.509500	0.458300
O161	O16	0.876100	0.483940	0.577400
N141	N14	0.663600	0.389520	0.589500
C1111	C111	0.643200	0.366100	0.637800
H621	H62	0.679600	0.365800	0.684800
C1121	C112	0.564900	0.340400	0.619700
H631	H63	0.550800	0.323700	0.654900
C1131	C113	0.511700	0.340700	0.550900
C1141	C114	0.431900	0.313700	0.531900
C1151	C115	0.456900	0.277200	0.517100
C1161	C116	0.552200	0.265100	0.509200
H641	H64	0.607800	0.279300	0.516700
C1171	C117	0.545200	0.229700	0.489100
H651	H65	0.595100	0.214600	0.479600
C1181	C118	0.446600	0.219100	0.485000
C1191	C119	0.411000	0.184200	0.465500
N151	N15	0.394900	0.248560	0.502200
N161	N16	0.258600	0.304550	0.525500
C1201	C120	0.533300	0.365800	0.500200
H661	H66	0.498200	0.367000	0.452700
C1211	C121	0.610200	0.389500	0.523200
H671	H67	0.625200	0.406600	0.489100
C1221	C122	0.554200	0.122100	0.364100
H681	H68	0.556300	0.118500	0.314100
C1231	C123	0.483500	0.145900	0.384000
H691	H69	0.437400	0.155300	0.346500
C1241	C124	0.542600	0.136200	0.501600
H701	H70	0.539600	0.139800	0.551400
C1251	C125	0.220800	0.364200	0.556200
H711	H71	0.185300	0.384600	0.566600
C1261	C126	0.339900	0.325800	0.536700
C1271	C127	0.315500	0.172000	0.461700
C1281	C128	0.609200	0.112600	0.481200
H721	H72	0.652300	0.101000	0.517800
Zn51	Zn5	0.250000	0.750000	0.000000
Zn61	Zn6	0.250000	0.250000	0.500000
Zn71	Zn7	0.277630	0.072990	0.114910
C1291	C129	0.816900	0.136600	0.055200
H731	H73	0.859500	0.116900	0.064500
O171	O17	0.252100	0.948940	0.706300
C1301	C130	0.291500	0.933900	0.761300
C1311	C131	0.375000	0.962600	0.871000
H741	H74	0.431600	0.956900	0.853800
C1321	C132	0.979300	0.345100	0.948000
N171	N17	0.114600	0.394490	0.910700
C1331	C133	0.290800	0.951400	0.834500
O181	O18	0.328900	0.904500	0.754500
O191	O19	0.238100	0.040250	0.029600
C1341	C134	0.304400	0.016700	0.028800
C1351	C135	0.296700	0.990800	0.964000
C1361	C136	0.207500	0.976200	0.929100
C1371	C137	0.122700	0.979430	0.960600
H751	H75	0.124000	0.991800	0.005100
C1381	C138	0.037800	0.964100	0.924900
H761	H76	0.982200	0.966500	0.945500
C1391	C139	0.035200	0.946000	0.861700
H771	H77	0.977300	0.936200	0.838200
C1401	C140	0.117300	0.941500	0.829800
H781	H78	0.114200	0.928500	0.785700
C1411	C141	0.205300	0.956640	0.864400
C1421	C142	0.376500	0.982200	0.933900
H791	H79	0.435700	0.990500	0.958300
O201	O20	0.376100	0.016060	0.077400
N181	N18	0.163600	0.110480	0.089500
C1431	C143	0.143200	0.133900	0.137800
H801	H80	0.179600	0.134200	0.184800
C1441	C144	0.064900	0.159600	0.119700
H811	H81	0.050800	0.176300	0.154900
C1451	C145	0.011700	0.159300	0.050900
C1461	C146	0.931900	0.186300	0.031900
C1471	C147	0.956900	0.222800	0.017100
C1481	C148	0.052200	0.234900	0.009200
H821	H82	0.107800	0.220700	0.016700
C1491	C149	0.045200	0.270300	0.989100
H831	H83	0.095100	0.285400	0.979600
C1501	C150	0.946600	0.280900	0.985000
C1511	C151	0.911000	0.315800	0.965500
N191	N19	0.894900	0.251440	0.002200
N201	N20	0.758600	0.195450	0.025500
C1521	C152	0.033300	0.134200	0.000200
H841	H84	0.998200	0.133000	0.952700
C1531	C153	0.110200	0.110500	0.023200
H851	H85	0.125200	0.093400	0.989100
C1541	C154	0.054200	0.377900	0.864100
H861	H86	0.056300	0.381500	0.814100
C1551	C155	0.983500	0.354100	0.884000
H871	H87	0.937400	0.344700	0.846500
C1561	C156	0.042600	0.363800	0.001600
H881	H88	0.039600	0.360200	0.051400
C1571	C157	0.720800	0.135800	0.056200
H891	H89	0.685300	0.115400	0.066600
C1581	C158	0.839900	0.174200	0.036700
C1591	C159	0.815500	0.328000	0.961700
C1601	C160	0.109200	0.387400	0.981200
H901	H90	0.152300	0.399000	0.017800
Zn81	Zn8	0.222370	0.572990	0.385090
C1611	C161	0.683100	0.636600	0.444800
H911	H91	0.640500	0.616900	0.435500
O211	O21	0.247900	0.448940	0.793700
C1621	C162	0.208500	0.433900	0.738700
C1631	C163	0.125000	0.462600	0.629000
H921	H92	0.068400	0.456900	0.646200
C1641	C164	0.520700	0.845100	0.552000
N211	N21	0.385400	0.894490	0.589300
C1651	C165	0.209200	0.451400	0.665500
O221	O22	0.171100	0.404500	0.745500
O231	O23	0.261900	0.540250	0.470400
C1661	C166	0.195600	0.516700	0.471200
C1671	C167	0.203300	0.490800	0.536000
C1681	C168	0.292500	0.476200	0.570900
C1691	C169	0.377300	0.479430	0.539400
H931	H93	0.376000	0.491800	0.494900
C1701	C170	0.462200	0.464100	0.575100
H941	H94	0.517800	0.466500	0.554500
C1711	C171	0.464800	0.446000	0.638300
H951	H95	0.522700	0.436200	0.661800
C1721	C172	0.382700	0.441500	0.670200
H961	H96	0.385800	0.428500	0.714300
C1731	C173	0.294700	0.456640	0.635600
C1741	C174	0.123500	0.482200	0.566100
H971	H97	0.064300	0.490500	0.541700
O241	O24	0.123900	0.516060	0.422600
N221	N22	0.336400	0.610480	0.410500
C1751	C175	0.356800	0.633900	0.362200
H981	H98	0.320400	0.634200	0.315200
C1761	C176	0.435100	0.659600	0.380300
H991	H99	0.449200	0.676300	0.345100
C1771	C177	0.488300	0.659300	0.449100
C1781	C178	0.568100	0.686300	0.468100
C1791	C179	0.543100	0.722800	0.482900
C1801	C180	0.447800	0.734900	0.490800
H1001	H100	0.392200	0.720700	0.483300
C1811	C181	0.454800	0.770300	0.510900
H1011	H101	0.404900	0.785400	0.520400
C1821	C182	0.553400	0.780900	0.515000
C1831	C183	0.589000	0.815800	0.534500
N231	N23	0.605100	0.751440	0.497800
N241	N24	0.741400	0.695450	0.474500
C1841	C184	0.466700	0.634200	0.499800
H1021	H102	0.501800	0.633000	0.547300
C1851	C185	0.389800	0.610500	0.476800
H1031	H103	0.374800	0.593400	0.510900
C1861	C186	0.445800	0.877900	0.635900
H1041	H104	0.443700	0.881500	0.685900
C1871	C187	0.516500	0.854100	0.616000
H1051	H105	0.562600	0.844700	0.653500
C1881	C188	0.457400	0.863800	0.498400
H1061	H106	0.460400	0.860200	0.448600
C1891	C189	0.779200	0.635800	0.443800
H1071	H107	0.814700	0.615400	0.433400
C1901	C190	0.660100	0.674200	0.463300
C1911	C191	0.684500	0.828000	0.538300
C1921	C192	0.390800	0.887400	0.518800
H1081	H108	0.347700	0.899000	0.482200
Zn91	Zn9	0.222370	0.427010	0.885090
C1931	C193	0.683100	0.363400	0.944800
H1091	H109	0.640500	0.383100	0.935500
O251	O25	0.247900	0.551060	0.293700
C1941	C194	0.208500	0.566100	0.238700
C1951	C195	0.125000	0.537400	0.129000
H1101	H110	0.068400	0.543100	0.146200
C1961	C196	0.520700	0.154900	0.052000
N251	N25	0.385400	0.105510	0.089300
C1971	C197	0.209200	0.548600	0.165500
O261	O26	0.171100	0.595500	0.245500
O271	O27	0.261900	0.459750	0.970400
C1981	C198	0.195600	0.483300	0.971200
C1991	C199	0.203300	0.509200	0.036000
C2001	C200	0.292500	0.523800	0.070900
C2011	C201	0.377300	0.520570	0.039400
H1111	H111	0.376000	0.508200	0.994900
C2021	C202	0.462200	0.535900	0.075100
H1121	H112	0.517800	0.533500	0.054500
C2031	C203	0.464800	0.554000	0.138300
H1131	H113	0.522700	0.563800	0.161800
C2041	C204	0.382700	0.558500	0.170200
H1141	H114	0.385800	0.571500	0.214300
C2051	C205	0.294700	0.543360	0.135600
C2061	C206	0.123500	0.517800	0.066100
H1151	H115	0.064300	0.509500	0.041700
O281	O28	0.123900	0.483940	0.922600
N261	N26	0.336400	0.389520	0.910500
C2071	C207	0.356800	0.366100	0.862200
H1161	H116	0.320400	0.365800	0.815200
C2081	C208	0.435100	0.340400	0.880300
H1171	H117	0.449200	0.323700	0.845100
C2091	C209	0.488300	0.340700	0.949100
C2101	C210	0.568100	0.313700	0.968100
C2111	C211	0.543100	0.277200	0.982900
C2121	C212	0.447800	0.265100	0.990800
H1181	H118	0.392200	0.279300	0.983300
C2131	C213	0.454800	0.229700	0.010900
H1191	H119	0.404900	0.214600	0.020400
C2141	C214	0.553400	0.219100	0.015000
C2151	C215	0.589000	0.184200	0.034500
N271	N27	0.605100	0.248560	0.997800
N281	N28	0.741400	0.304550	0.974500
C2161	C216	0.466700	0.365800	0.999800
H1201	H120	0.501800	0.367000	0.047300
C2171	C217	0.389800	0.389500	0.976800
H1211	H121	0.374800	0.406600	0.010900
C2181	C218	0.445800	0.122100	0.135900
H1221	H122	0.443700	0.118500	0.185900
C2191	C219	0.516500	0.145900	0.116000
H1231	H123	0.562600	0.155300	0.153500
C2201	C220	0.457400	0.136200	0.998400
H1241	H124	0.460400	0.139800	0.948600
C2211	C221	0.779200	0.364200	0.943800
H1251	H125	0.814700	0.384600	0.933400
C2221	C222	0.660100	0.325800	0.963300
C2231	C223	0.684500	0.172000	0.038300
C2241	C224	0.390800	0.112600	0.018800
H1261	H126	0.347700	0.101000	0.982200
Zn101	Zn10	0.277630	0.927010	0.614910
C2251	C225	0.816900	0.863400	0.555200
H1271	H127	0.859500	0.883100	0.564500
O291	O29	0.252100	0.051060	0.206300
C2261	C226	0.291500	0.066100	0.261300
C2271	C227	0.375000	0.037400	0.371000
H1281	H128	0.431600	0.043100	0.353800
C2281	C228	0.979300	0.654900	0.448000
N291	N29	0.114600	0.605510	0.410700
C2291	C229	0.290800	0.048600	0.334500
O301	O30	0.328900	0.095500	0.254500
O311	O31	0.238100	0.959750	0.529600
C2301	C230	0.304400	0.983300	0.528800
C2311	C231	0.296700	0.009200	0.464000
C2321	C232	0.207500	0.023800	0.429100
C2331	C233	0.122700	0.020570	0.460600
H1291	H129	0.124000	0.008200	0.505100
C2341	C234	0.037800	0.035900	0.424900
H1301	H130	0.982200	0.033500	0.445500
C2351	C235	0.035200	0.054000	0.361700
H1311	H131	0.977300	0.063800	0.338200
C2361	C236	0.117300	0.058500	0.329800
H1321	H132	0.114200	0.071500	0.285700
C2371	C237	0.205300	0.043360	0.364400
C2381	C238	0.376500	0.017800	0.433900
H1331	H133	0.435700	0.009500	0.458300
O321	O32	0.376100	0.983940	0.577400
N301	N30	0.163600	0.889520	0.589500
C2391	C239	0.143200	0.866100	0.637800
H1341	H134	0.179600	0.865800	0.684800
C2401	C240	0.064900	0.840400	0.619700
H1351	H135	0.050800	0.823700	0.654900
C2411	C241	0.011700	0.840700	0.550900
C2421	C242	0.931900	0.813700	0.531900
C2431	C243	0.956900	0.777200	0.517100
C2441	C244	0.052200	0.765100	0.509200
H1361	H136	0.107800	0.779300	0.516700
C2451	C245	0.045200	0.729700	0.489100
H1371	H137	0.095100	0.714600	0.479600
C2461	C246	0.946600	0.719100	0.485000
C2471	C247	0.911000	0.684200	0.465500
N311	N31	0.894900	0.748560	0.502200
N321	N32	0.758600	0.804550	0.525500
C2481	C248	0.033300	0.865800	0.500200
H1381	H138	0.998200	0.867000	0.452700
C2491	C249	0.110200	0.889500	0.523200
H1391	H139	0.125200	0.906600	0.489100
C2501	C250	0.054200	0.622100	0.364100
H1401	H140	0.056300	0.618500	0.314100
C2511	C251	0.983500	0.645900	0.384000
H1411	H141	0.937400	0.655300	0.346500
C2521	C252	0.042600	0.636200	0.501600
H1421	H142	0.039600	0.639800	0.551400
C2531	C253	0.720800	0.864200	0.556200
H1431	H143	0.685300	0.884600	0.566600
C2541	C254	0.839900	0.825800	0.536700
C2551	C255	0.815500	0.672000	0.461700
C2561	C256	0.109200	0.612600	0.481200
H1441	H144	0.152300	0.601000	0.517800
Zn111	Zn11	0.750000	0.750000	0.500000
Zn121	Zn12	0.750000	0.250000	0.000000
