data_XAVDEF_clean_h_PM
_symmetry_space_group_name_H-M	'P1'
_cell_length_a	14.444700
_cell_length_b	15.660900
_cell_length_c	20.456300
_cell_angle_alpha	90.000000
_cell_angle_beta	90.000000
_cell_angle_gamma	90.000000
_symmetry_Int_Tables_number 1

loop_
_symmetry_equiv_pos_as_xyz
'x,y,z'

loop_
_atom_site_label
_atom_site_type_symbol
_atom_site_fract_x
_atom_site_fract_y
_atom_site_fract_z
V11	V1	0.236000	0.742000	0.279500
V21	V2	0.730000	0.246000	0.395500
V31	V3	0.235000	0.744000	0.432000
V41	V4	0.764000	0.242000	0.720500
V51	V5	0.270000	0.746000	0.604500
V61	V6	0.765000	0.244000	0.568000
V71	V7	0.264000	0.742000	0.779500
V81	V8	0.770000	0.246000	0.895500
V91	V9	0.265000	0.744000	0.932000
V101	V10	0.736000	0.242000	0.220500
V111	V11	0.230000	0.746000	0.104500
V121	V12	0.735000	0.244000	0.068000
C11	C1	0.435700	0.564000	0.494900
C21	C2	0.463600	0.536200	0.555300
C31	C3	0.527900	0.472200	0.560400
C41	C4	0.472100	0.527800	0.439600
C51	C5	0.536400	0.463800	0.444700
C61	C6	0.564300	0.436000	0.505100
C71	C7	0.365300	0.634000	0.489400
C81	C8	0.634700	0.366000	0.510600
C91	C9	0.063600	0.564000	0.336000
C101	C10	0.024900	0.525100	0.390000
C111	C11	0.961300	0.461100	0.382000
C121	C12	0.038700	0.538900	0.275000
C131	C13	0.975100	0.474900	0.267000
C141	C14	0.936400	0.436000	0.320000
C151	C15	0.133200	0.634100	0.346000
C161	C16	0.866800	0.365900	0.311000
C171	C17	0.435400	0.564000	0.164000
C181	C18	0.467600	0.532200	0.222000
C191	C19	0.532200	0.468100	0.222000
C201	C20	0.467800	0.531900	0.106000
C211	C21	0.532400	0.467800	0.106000
C221	C22	0.564600	0.436000	0.164000
C231	C23	0.364600	0.634100	0.164000
C241	C24	0.635400	0.365900	0.164000
C251	C25	0.564300	0.064000	0.505100
C261	C26	0.536400	0.036200	0.444700
C271	C27	0.472100	0.972200	0.439600
C281	C28	0.527900	0.027800	0.560400
C291	C29	0.463600	0.963800	0.555300
C301	C30	0.435700	0.936000	0.494900
C311	C31	0.634700	0.134000	0.510600
C321	C32	0.365300	0.866000	0.489400
C331	C33	0.936400	0.064000	0.664000
C341	C34	0.975100	0.025100	0.610000
C351	C35	0.038700	0.961100	0.618000
C361	C36	0.961300	0.038900	0.725000
C371	C37	0.024900	0.974900	0.733000
C381	C38	0.063600	0.936000	0.680000
C391	C39	0.866800	0.134100	0.654000
C401	C40	0.133200	0.865900	0.689000
C411	C41	0.564600	0.064000	0.836000
C421	C42	0.532400	0.032200	0.778000
C431	C43	0.467800	0.968100	0.778000
C441	C44	0.532200	0.031900	0.894000
C451	C45	0.467600	0.967800	0.894000
C461	C46	0.435400	0.936000	0.836000
C471	C47	0.635400	0.134100	0.836000
C481	C48	0.364600	0.865900	0.836000
C491	C49	0.064300	0.564000	0.994900
C501	C50	0.036400	0.536200	0.055300
C511	C51	0.972100	0.472200	0.060400
C521	C52	0.027900	0.527800	0.939600
C531	C53	0.963600	0.463800	0.944700
C541	C54	0.935700	0.436000	0.005100
C551	C55	0.134700	0.634000	0.989400
C561	C56	0.865300	0.366000	0.010600
C571	C57	0.436400	0.564000	0.836000
C581	C58	0.475100	0.525100	0.890000
C591	C59	0.538700	0.461100	0.882000
C601	C60	0.461300	0.538900	0.775000
C611	C61	0.524900	0.474900	0.767000
C621	C62	0.563600	0.436000	0.820000
C631	C63	0.366800	0.634100	0.846000
C641	C64	0.633200	0.365900	0.811000
C651	C65	0.064600	0.564000	0.664000
C661	C66	0.032400	0.532200	0.722000
C671	C67	0.967800	0.468100	0.722000
C681	C68	0.032200	0.531900	0.606000
C691	C69	0.967600	0.467800	0.606000
C701	C70	0.935400	0.436000	0.664000
C711	C71	0.135400	0.634100	0.664000
C721	C72	0.864600	0.365900	0.664000
C731	C73	0.935700	0.064000	0.005100
C741	C74	0.963600	0.036200	0.944700
C751	C75	0.027900	0.972200	0.939600
C761	C76	0.972100	0.027800	0.060400
C771	C77	0.036400	0.963800	0.055300
C781	C78	0.064300	0.936000	0.994900
C791	C79	0.865300	0.134000	0.010600
C801	C80	0.134700	0.866000	0.989400
C811	C81	0.563600	0.064000	0.164000
C821	C82	0.524900	0.025100	0.110000
C831	C83	0.461300	0.961100	0.118000
C841	C84	0.538700	0.038900	0.225000
C851	C85	0.475100	0.974900	0.233000
C861	C86	0.436400	0.936000	0.180000
C871	C87	0.633200	0.134100	0.154000
C881	C88	0.366800	0.865900	0.189000
C891	C89	0.935400	0.064000	0.336000
C901	C90	0.967600	0.032200	0.278000
C911	C91	0.032200	0.968100	0.278000
C921	C92	0.967800	0.031900	0.394000
C931	C93	0.032400	0.967800	0.394000
C941	C94	0.064600	0.936000	0.336000
C951	C95	0.864600	0.134100	0.336000
C961	C96	0.135400	0.865900	0.336000
O11	O1	0.310000	0.729000	0.355000
O21	O2	0.764220	0.258130	0.461040
O31	O3	0.203000	0.758140	0.191730
O41	O4	0.338800	0.660400	0.432000
O51	O5	0.669200	0.331700	0.458000
O61	O6	0.330800	0.668300	0.542000
O71	O7	0.661200	0.339600	0.568000
O81	O8	0.169900	0.671000	0.295000
O91	O9	0.843100	0.342100	0.252000
O101	O10	0.156900	0.657900	0.404000
O111	O11	0.830100	0.329000	0.362000
O121	O12	0.334100	0.664400	0.109000
O131	O13	0.666200	0.335400	0.109000
O141	O14	0.333800	0.664600	0.219000
O151	O15	0.665900	0.335600	0.220000
O161	O16	0.690000	0.229000	0.645000
O171	O17	0.235780	0.758130	0.538960
O181	O18	0.797000	0.258140	0.808270
O191	O19	0.661200	0.160400	0.568000
O201	O20	0.330800	0.831700	0.542000
O211	O21	0.669200	0.168300	0.458000
O221	O22	0.338800	0.839600	0.432000
O231	O23	0.830100	0.171000	0.705000
O241	O24	0.156900	0.842100	0.748000
O251	O25	0.843100	0.157900	0.596000
O261	O26	0.169900	0.829000	0.638000
O271	O27	0.665900	0.164400	0.891000
O281	O28	0.333800	0.835400	0.891000
O291	O29	0.666200	0.164600	0.781000
O301	O30	0.334100	0.835600	0.780000
O311	O31	0.190000	0.729000	0.855000
O321	O32	0.735780	0.258130	0.961040
O331	O33	0.297000	0.758140	0.691730
O341	O34	0.161200	0.660400	0.932000
O351	O35	0.830800	0.331700	0.958000
O361	O36	0.169200	0.668300	0.042000
O371	O37	0.838800	0.339600	0.068000
O381	O38	0.330100	0.671000	0.795000
O391	O39	0.656900	0.342100	0.752000
O401	O40	0.343100	0.657900	0.904000
O411	O41	0.669900	0.329000	0.862000
O421	O42	0.165900	0.664400	0.609000
O431	O43	0.833800	0.335400	0.609000
O441	O44	0.166200	0.664600	0.719000
O451	O45	0.834100	0.335600	0.720000
O461	O46	0.810000	0.229000	0.145000
O471	O47	0.264220	0.758130	0.038960
O481	O48	0.703000	0.258140	0.308270
O491	O49	0.838800	0.160400	0.068000
O501	O50	0.169200	0.831700	0.042000
O511	O51	0.830800	0.168300	0.958000
O521	O52	0.161200	0.839600	0.932000
O531	O53	0.669900	0.171000	0.205000
O541	O54	0.343100	0.842100	0.248000
O551	O55	0.656900	0.157900	0.096000
O561	O56	0.330100	0.829000	0.138000
O571	O57	0.834100	0.164400	0.391000
O581	O58	0.166200	0.835400	0.391000
O591	O59	0.833800	0.164600	0.281000
O601	O60	0.165900	0.835600	0.280000
H11	H1	0.433320	0.566320	0.601310
H21	H2	0.551090	0.449090	0.610640
H31	H3	0.448900	0.550920	0.389360
H41	H4	0.566690	0.433670	0.398700
H51	H5	0.045880	0.546240	0.441230
H61	H6	0.929290	0.428920	0.426590
H71	H7	0.070720	0.571090	0.230420
H81	H8	0.954170	0.453800	0.215750
H91	H9	0.440700	0.559020	0.270200
H101	H10	0.559040	0.441420	0.270260
H111	H11	0.441010	0.558520	0.057710
H121	H12	0.559200	0.441080	0.057740
H131	H13	0.566680	0.066320	0.398690
H141	H14	0.448910	0.949090	0.389360
H151	H15	0.551100	0.050920	0.610640
H161	H16	0.433310	0.933670	0.601300
H171	H17	0.954120	0.046240	0.558770
H181	H18	0.070710	0.928920	0.573410
H191	H19	0.929280	0.071090	0.769580
H201	H20	0.045830	0.953800	0.784250
H211	H21	0.559300	0.059020	0.729800
H221	H22	0.440960	0.941420	0.729740
H231	H23	0.558990	0.058520	0.942290
H241	H24	0.440800	0.941080	0.942260
H251	H25	0.066680	0.566320	0.101310
H261	H26	0.948910	0.449090	0.110640
H271	H27	0.051100	0.550920	0.889360
H281	H28	0.933310	0.433670	0.898700
H291	H29	0.454120	0.546240	0.941230
H301	H30	0.570710	0.428920	0.926590
H311	H31	0.429280	0.571090	0.730420
H321	H32	0.545830	0.453800	0.715750
H331	H33	0.059300	0.559020	0.770200
H341	H34	0.940960	0.441420	0.770260
H351	H35	0.058990	0.558520	0.557710
H361	H36	0.940800	0.441080	0.557740
H371	H37	0.933320	0.066320	0.898690
H381	H38	0.051090	0.949090	0.889360
H391	H39	0.948900	0.050920	0.110640
H401	H40	0.066690	0.933670	0.101300
H411	H41	0.545880	0.046240	0.058770
H421	H42	0.429290	0.928920	0.073410
H431	H43	0.570720	0.071090	0.269580
H441	H44	0.454170	0.953800	0.284250
H451	H45	0.940700	0.059020	0.229800
H461	H46	0.059040	0.941420	0.229740
H471	H47	0.941010	0.058520	0.442290
H481	H48	0.059200	0.941080	0.442260
