data_XAVQIU01_clean_PM
_symmetry_space_group_name_H-M	'P1'
_cell_length_a	10.107000
_cell_length_b	10.258000
_cell_length_c	16.276000
_cell_angle_alpha	90.000000
_cell_angle_beta	95.380000
_cell_angle_gamma	90.000000
_symmetry_Int_Tables_number 1

loop_
_symmetry_equiv_pos_as_xyz
'x,y,z'

loop_
_atom_site_label
_atom_site_type_symbol
_atom_site_fract_x
_atom_site_fract_y
_atom_site_fract_z
Co11	Co1	0.227000	0.253960	0.577630
Co21	Co2	0.773000	0.753960	0.922370
Co31	Co3	0.773000	0.746040	0.422370
Co41	Co4	0.227000	0.246040	0.077630
Co51	Co5	0.000000	0.000000	0.000000
Co61	Co6	0.000000	0.500000	0.500000
H11	H1	0.050600	0.640700	0.750300
H21	H2	0.436400	0.556800	0.736800
H31	H3	0.324800	0.774700	0.922900
H41	H4	0.949400	0.140700	0.749700
H51	H5	0.563600	0.056800	0.763200
H61	H6	0.675200	0.274700	0.577100
H71	H7	0.949400	0.359300	0.249700
H81	H8	0.563600	0.443200	0.263200
H91	H9	0.675200	0.225300	0.077100
H101	H10	0.050600	0.859300	0.250300
H111	H11	0.436400	0.943200	0.236800
H121	H12	0.324800	0.725300	0.422900
C11	C1	0.064200	0.779800	0.889700
C21	C2	0.170300	0.717000	0.844100
C31	C3	0.138900	0.648000	0.771600
C41	C4	0.237700	0.589700	0.730400
C51	C5	0.370200	0.598500	0.763000
C61	C6	0.403000	0.670000	0.834700
C71	C7	0.302800	0.727800	0.874700
C81	C8	0.201100	0.516100	0.652100
C91	C9	0.545400	0.687600	0.867600
C101	C10	0.935800	0.279800	0.610300
C111	C11	0.829700	0.217000	0.655900
C121	C12	0.861100	0.148000	0.728400
C131	C13	0.762300	0.089700	0.769600
C141	C14	0.629800	0.098500	0.737000
C151	C15	0.597000	0.170000	0.665300
C161	C16	0.697200	0.227800	0.625300
C171	C17	0.798900	0.016100	0.847900
C181	C18	0.454600	0.187600	0.632400
C191	C19	0.935800	0.220200	0.110300
C201	C20	0.829700	0.283000	0.155900
C211	C21	0.861100	0.352000	0.228400
C221	C22	0.762300	0.410300	0.269600
C231	C23	0.629800	0.401500	0.237000
C241	C24	0.597000	0.330000	0.165300
C251	C25	0.697200	0.272200	0.125300
C261	C26	0.798900	0.483900	0.347900
C271	C27	0.454600	0.312400	0.132400
C281	C28	0.064200	0.720200	0.389700
C291	C29	0.170300	0.783000	0.344100
C301	C30	0.138900	0.852000	0.271600
C311	C31	0.237700	0.910300	0.230400
C321	C32	0.370200	0.901500	0.263000
C331	C33	0.403000	0.830000	0.334700
C341	C34	0.302800	0.772200	0.374700
C351	C35	0.201100	0.983900	0.152100
C361	C36	0.545400	0.812400	0.367600
O11	O1	0.946800	0.746600	0.868900
O21	O2	0.103200	0.860800	0.944500
O31	O3	0.094000	0.550200	0.612100
O41	O4	0.279500	0.428600	0.633300
O51	O5	0.637100	0.661400	0.823500
O61	O6	0.569500	0.732300	0.939600
O71	O7	0.053200	0.246600	0.631100
O81	O8	0.896800	0.360800	0.555500
O91	O9	0.906000	0.050200	0.887900
O101	O10	0.720500	0.928600	0.866700
O111	O11	0.362900	0.161400	0.676500
O121	O12	0.430500	0.232300	0.560400
O131	O13	0.053200	0.253400	0.131100
O141	O14	0.896800	0.139200	0.055500
O151	O15	0.906000	0.449800	0.387900
O161	O16	0.720500	0.571400	0.366700
O171	O17	0.362900	0.338600	0.176500
O181	O18	0.430500	0.267700	0.060400
O191	O19	0.946800	0.753400	0.368900
O201	O20	0.103200	0.639200	0.444500
O211	O21	0.094000	0.949800	0.112100
O221	O22	0.279500	0.071400	0.133300
O231	O23	0.637100	0.838600	0.323500
O241	O24	0.569500	0.767700	0.439600
