data_XAWBEE_clean_PM
_symmetry_space_group_name_H-M	'P1'
_cell_length_a	9.271300
_cell_length_b	14.453000
_cell_length_c	9.996000
_cell_angle_alpha	90.000000
_cell_angle_beta	116.160000
_cell_angle_gamma	90.000000
_symmetry_Int_Tables_number 1

loop_
_symmetry_equiv_pos_as_xyz
'x,y,z'

loop_
_atom_site_label
_atom_site_type_symbol
_atom_site_fract_x
_atom_site_fract_y
_atom_site_fract_z
H11	H1	0.433000	0.416000	0.520000
H21	H2	0.775000	0.296000	0.955000
H31	H3	0.048000	0.224000	0.959000
H41	H4	0.057000	0.194000	0.456000
H51	H5	0.995000	0.380000	0.888000
In11	In1	0.271570	0.354050	0.767910
In21	In2	0.008050	0.461190	0.252490
In31	In3	0.247130	0.060130	0.252390
O11	O1	0.123000	0.441600	0.114200
O21	O2	0.268800	0.128000	0.074000
O31	O3	0.021900	0.380400	0.628100
O41	O4	0.786200	0.485200	0.579700
O51	O5	0.005600	0.541400	0.882100
O61	O6	0.062200	0.324000	0.328800
O71	O7	0.230000	0.236600	0.866500
O81	O8	0.498500	0.571100	0.600200
O91	O9	0.326900	0.479300	0.690100
O101	O10	0.047100	0.101300	0.810700
O111	O11	0.226500	0.519400	0.417000
O121	O12	0.522100	0.335000	0.905500
O131	O13	0.278800	0.276900	0.586100
O141	O14	0.242800	0.187000	0.360700
O151	O15	0.768800	0.414400	0.093200
O161	O16	0.694600	0.430500	0.816200
O171	O17	0.882200	0.469800	0.386300
O181	O18	0.244500	0.438700	0.935400
P11	P1	0.371590	0.495540	0.562050
P21	P2	0.689450	0.371410	0.937440
P31	P3	0.146410	0.170770	0.927540
P41	P4	0.157090	0.246150	0.428570
P51	P5	0.088210	0.451130	0.951590
P61	P6	0.933850	0.469500	0.552970
H61	H6	0.011200	0.524000	0.607600
H71	H7	0.567000	0.916000	0.480000
H81	H8	0.225000	0.796000	0.045000
H91	H9	0.952000	0.724000	0.041000
H101	H10	0.943000	0.694000	0.544000
H111	H11	0.005000	0.880000	0.112000
In41	In4	0.728430	0.854050	0.232090
In51	In5	0.991950	0.961190	0.747510
In61	In6	0.752870	0.560130	0.747610
O191	O19	0.877000	0.941600	0.885800
O201	O20	0.731200	0.628000	0.926000
O211	O21	0.978100	0.880400	0.371900
O221	O22	0.213800	0.985200	0.420300
O231	O23	0.994400	0.041400	0.117900
O241	O24	0.937800	0.824000	0.671200
O251	O25	0.770000	0.736600	0.133500
O261	O26	0.501500	0.071100	0.399800
O271	O27	0.673100	0.979300	0.309900
O281	O28	0.952900	0.601300	0.189300
O291	O29	0.773500	0.019400	0.583000
O301	O30	0.477900	0.835000	0.094500
O311	O31	0.721200	0.776900	0.413900
O321	O32	0.757200	0.687000	0.639300
O331	O33	0.231200	0.914400	0.906800
O341	O34	0.305400	0.930500	0.183800
O351	O35	0.117800	0.969800	0.613700
O361	O36	0.755500	0.938700	0.064600
P71	P7	0.628410	0.995540	0.437950
P81	P8	0.310550	0.871410	0.062560
P91	P9	0.853590	0.670770	0.072460
P101	P10	0.842910	0.746150	0.571430
P111	P11	0.911790	0.951130	0.048410
P121	P12	0.066150	0.969500	0.447030
H121	H12	0.988800	0.024000	0.392400
