data_XAXBAB_clean_PM
_symmetry_space_group_name_H-M	'P1'
_cell_length_a	8.709000
_cell_length_b	11.587000
_cell_length_c	8.280000
_cell_angle_alpha	90.000000
_cell_angle_beta	90.000000
_cell_angle_gamma	90.000000
_symmetry_Int_Tables_number 1

loop_
_symmetry_equiv_pos_as_xyz
'x,y,z'

loop_
_atom_site_label
_atom_site_type_symbol
_atom_site_fract_x
_atom_site_fract_y
_atom_site_fract_z
C11	C1	0.970290	0.219720	0.025710
H11	H1	0.918000	0.280400	0.080000
O11	O1	0.240590	0.404040	0.118730
O21	O2	0.087460	0.179830	0.090780
O31	O3	0.915910	0.185780	0.893620
C21	C2	0.529710	0.780280	0.025710
H21	H2	0.582000	0.719600	0.080000
O41	O4	0.259410	0.595960	0.118730
O51	O5	0.412540	0.820170	0.090780
O61	O6	0.584090	0.814220	0.893620
C31	C3	0.529710	0.719720	0.474290
H31	H3	0.582000	0.780400	0.420000
O71	O7	0.259410	0.904040	0.381270
O81	O8	0.412540	0.679830	0.409220
O91	O9	0.584090	0.685780	0.606380
C41	C4	0.970290	0.280280	0.474290
H41	H4	0.918000	0.219600	0.420000
O101	O10	0.240590	0.095960	0.381270
O111	O11	0.087460	0.320170	0.409220
O121	O12	0.915910	0.314220	0.606380
C51	C5	0.029710	0.780280	0.974290
H51	H5	0.082000	0.719600	0.920000
O131	O13	0.759410	0.595960	0.881270
O141	O14	0.912540	0.820170	0.909220
O151	O15	0.084090	0.814220	0.106380
C61	C6	0.470290	0.219720	0.974290
H61	H6	0.418000	0.280400	0.920000
O161	O16	0.740590	0.404040	0.881270
O171	O17	0.587460	0.179830	0.909220
O181	O18	0.415910	0.185780	0.106380
C71	C7	0.470290	0.280280	0.525710
H71	H7	0.418000	0.219600	0.580000
O191	O19	0.740590	0.095960	0.618730
O201	O20	0.587460	0.320170	0.590780
O211	O21	0.415910	0.314220	0.393620
C81	C8	0.029710	0.719720	0.525710
H81	H8	0.082000	0.780400	0.580000
O221	O22	0.759410	0.904040	0.618730
O231	O23	0.912540	0.679830	0.590780
O241	O24	0.084090	0.685780	0.393620
C91	C9	0.250000	0.500000	0.188400
H91	H9	0.250000	0.500000	0.303100
C101	C10	0.250000	0.000000	0.311600
H101	H10	0.250000	0.000000	0.196900
C111	C11	0.750000	0.500000	0.811600
H111	H11	0.750000	0.500000	0.696900
C121	C12	0.750000	0.000000	0.688400
H121	H12	0.750000	0.000000	0.803100
Mg11	Mg1	0.241030	0.250000	0.250000
Mg21	Mg2	0.258970	0.750000	0.250000
Mg31	Mg3	0.758970	0.750000	0.750000
Mg41	Mg4	0.741030	0.250000	0.750000
