data_XAXQEU_SL_PM
_symmetry_space_group_name_H-M	'P1'
_cell_length_a	7.162200
_cell_length_b	9.094000
_cell_length_c	9.749000
_cell_angle_alpha	105.663000
_cell_angle_beta	103.181000
_cell_angle_gamma	98.248000
_symmetry_Int_Tables_number 1

loop_
_symmetry_equiv_pos_as_xyz
'x,y,z'

loop_
_atom_site_label
_atom_site_type_symbol
_atom_site_fract_x
_atom_site_fract_y
_atom_site_fract_z
In11	In1	0.000000	0.500000	0.000000
In21	In2	0.500000	0.500000	0.000000
H31	H3	0.508000	0.013000	0.709000
H41	H4	0.767100	0.114100	0.548700
H51	H5	0.812900	0.007900	0.649600
H61	H6	0.079200	0.282500	0.350300
H71	H7	0.056500	0.303200	0.510200
H81	H8	0.206500	0.547700	0.411800
H91	H9	0.330700	0.483100	0.527700
H101	H10	0.291600	0.145100	0.603700
H111	H11	0.435600	0.200100	0.518800
H121	H12	0.759000	0.277000	0.346000
H131	H13	0.492000	0.987000	0.291000
H141	H14	0.232900	0.885900	0.451300
H151	H15	0.187100	0.992100	0.350400
H161	H16	0.920800	0.717500	0.649700
H171	H17	0.943500	0.696800	0.489800
H181	H18	0.793500	0.452300	0.588200
H191	H19	0.669300	0.516900	0.472300
H201	H20	0.708400	0.854900	0.396300
H211	H21	0.564400	0.799900	0.481200
H221	H22	0.241000	0.723000	0.654000
C231	C23	0.708800	0.031300	0.581300
C241	C24	0.049800	0.352600	0.433100
C251	C25	0.841800	0.377000	0.382400
C261	C26	0.202500	0.504000	0.491800
C271	C27	0.801000	0.419700	0.240400
C281	C28	0.646300	0.231500	0.792700
C291	C29	0.559200	0.086800	0.660500
C301	C30	0.388400	0.114700	0.552700
C311	C31	0.291200	0.968700	0.418700
C321	C32	0.950200	0.647400	0.566900
C331	C33	0.158200	0.623000	0.617600
C341	C34	0.797500	0.496000	0.508200
C351	C35	0.199000	0.580300	0.759600
C361	C36	0.353700	0.768500	0.207300
C371	C37	0.440800	0.913200	0.339500
C381	C38	0.611600	0.885300	0.447300
O391	O39	0.766400	0.614600	0.985500
O401	O40	0.532700	0.276200	0.869900
O411	O41	0.643600	0.464400	0.203600
O421	O42	0.821300	0.298800	0.818800
O431	O43	0.922100	0.404100	0.164400
O441	O44	0.233600	0.385400	0.014500
O451	O45	0.467300	0.723800	0.130100
O461	O46	0.356400	0.535600	0.796400
O471	O47	0.178700	0.701200	0.181200
O481	O48	0.077900	0.595900	0.835600
H491	H49	0.766400	0.728800	0.014260
H501	H50	0.233600	0.271200	0.985740
