data_XAYNAM_charged_PM
_symmetry_space_group_name_H-M	'P1'
_cell_length_a	15.165800
_cell_length_b	16.981000
_cell_length_c	19.436000
_cell_angle_alpha	95.825000
_cell_angle_beta	90.000000
_cell_angle_gamma	90.000000
_symmetry_Int_Tables_number 1

loop_
_symmetry_equiv_pos_as_xyz
'x,y,z'

loop_
_atom_site_label
_atom_site_type_symbol
_atom_site_fract_x
_atom_site_fract_y
_atom_site_fract_z
Ag11	Ag1	0.929740	0.966360	0.820420
Ag21	Ag2	0.888770	0.764200	0.468510
Ag31	Ag3	0.909570	0.532550	0.789030
Ag41	Ag4	0.429740	0.533640	0.679580
Ag51	Ag5	0.388770	0.735800	0.031490
Ag61	Ag6	0.409570	0.967450	0.710970
Ag71	Ag7	0.070260	0.033640	0.179580
Ag81	Ag8	0.111230	0.235800	0.531490
Ag91	Ag9	0.090430	0.467450	0.210970
Ag101	Ag10	0.570260	0.466360	0.320420
Ag111	Ag11	0.611230	0.264200	0.968510
Ag121	Ag12	0.590430	0.032550	0.289030
H11	H1	0.953600	0.674000	0.903600
H21	H2	0.948500	0.811900	0.917800
H31	H3	0.904800	0.000200	0.650900
H41	H4	0.911700	0.930700	0.540200
H51	H5	0.940000	0.673600	0.577700
H61	H6	0.950300	0.606100	0.672000
H71	H7	0.581000	0.607200	0.431100
H81	H8	0.675500	0.698600	0.487100
H91	H9	0.071300	0.720300	0.378000
H101	H10	0.125800	0.621800	0.300800
H111	H11	0.897300	0.457400	0.246800
H121	H12	0.751600	0.455200	0.278000
H131	H13	0.798400	0.346700	0.975100
H141	H14	0.897200	0.423800	0.918800
H151	H15	0.765400	0.596400	0.659600
H161	H16	0.617300	0.590400	0.629400
H171	H17	0.499100	0.411600	0.761800
H181	H18	0.546200	0.349800	0.852300
H191	H19	0.453600	0.826000	0.596400
H201	H20	0.448500	0.688100	0.582200
H211	H21	0.404800	0.499800	0.849100
H221	H22	0.411700	0.569300	0.959800
H231	H23	0.440000	0.826400	0.922300
H241	H24	0.450300	0.893900	0.828000
H251	H25	0.081000	0.892800	0.068900
H261	H26	0.175500	0.801400	0.012900
H271	H27	0.571300	0.779700	0.122000
H281	H28	0.625800	0.878200	0.199200
H291	H29	0.397300	0.042600	0.253200
H301	H30	0.251600	0.044800	0.222000
H311	H31	0.298400	0.153300	0.524900
H321	H32	0.397200	0.076200	0.581200
H331	H33	0.265400	0.903600	0.840400
H341	H34	0.117300	0.909600	0.870600
H351	H35	0.999100	0.088400	0.738200
H361	H36	0.046200	0.150200	0.647700
H371	H37	0.046400	0.326000	0.096400
H381	H38	0.051500	0.188100	0.082200
H391	H39	0.095200	0.999800	0.349100
H401	H40	0.088300	0.069300	0.459800
H411	H41	0.060000	0.326400	0.422300
H421	H42	0.049700	0.393900	0.328000
H431	H43	0.419000	0.392800	0.568900
H441	H44	0.324500	0.301400	0.512900
H451	H45	0.928700	0.279700	0.622000
H461	H46	0.874200	0.378200	0.699200
H471	H47	0.102700	0.542600	0.753200
H481	H48	0.248400	0.544800	0.722000
H491	H49	0.201600	0.653300	0.024900
H501	H50	0.102800	0.576200	0.081200
H511	H51	0.234600	0.403600	0.340400
H521	H52	0.382700	0.409600	0.370600
H531	H53	0.500900	0.588400	0.238200
H541	H54	0.453800	0.650200	0.147700
H551	H55	0.546400	0.174000	0.403600
H561	H56	0.551500	0.311900	0.417800
H571	H57	0.595200	0.500200	0.150900
H581	H58	0.588300	0.430700	0.040200
H591	H59	0.560000	0.173600	0.077700
H601	H60	0.549700	0.106100	0.172000
H611	H61	0.919000	0.107200	0.931100
H621	H62	0.824500	0.198600	0.987100
H631	H63	0.428700	0.220300	0.878000
H641	H64	0.374200	0.121800	0.800800
H651	H65	0.602700	0.957400	0.746800
H661	H66	0.748400	0.955200	0.778000
H671	H67	0.701600	0.846700	0.475100
H681	H68	0.602800	0.923800	0.418800
H691	H69	0.734600	0.096400	0.159600
H701	H70	0.882700	0.090400	0.129400
H711	H71	0.000900	0.911600	0.261800
H721	H72	0.953800	0.849800	0.352300
C11	C1	0.936700	0.785600	0.755200
C21	C2	0.942800	0.703100	0.745700
C31	C3	0.949000	0.701700	0.863700
C41	C4	0.945400	0.785100	0.872500
C51	C5	0.929200	0.828900	0.694500
C61	C6	0.912400	0.944300	0.646600
C71	C7	0.915500	0.902200	0.579800
C81	C8	0.930200	0.785700	0.629100
C91	C9	0.938600	0.701700	0.622500
C101	C10	0.944700	0.662100	0.677700
C111	C11	0.810000	0.613000	0.381500
C121	C12	0.754600	0.554300	0.349600
C131	C13	0.641300	0.606300	0.417700
C141	C14	0.697700	0.662300	0.450800
C151	C15	0.899600	0.616200	0.358600
C161	C16	0.033500	0.677800	0.361800
C171	C17	0.065900	0.618800	0.314700
C181	C18	0.932200	0.558200	0.309300
C191	C19	0.875000	0.497400	0.280000
C201	C20	0.789200	0.495600	0.298700
C211	C21	0.732600	0.441500	0.824500
C221	C22	0.672500	0.393500	0.857300
C231	C23	0.779100	0.370600	0.935600
C241	C24	0.838600	0.417600	0.901800
C251	C25	0.703000	0.480700	0.766100
C261	C26	0.727200	0.564600	0.683900
C271	C27	0.638000	0.559900	0.664500
C281	C28	0.614700	0.472500	0.745100
C291	C29	0.557700	0.420100	0.778200
C301	C30	0.585600	0.383600	0.831200
C311	C31	0.436700	0.714400	0.744800
C321	C32	0.442800	0.796900	0.754300
C331	C33	0.449000	0.798300	0.636300
C341	C34	0.445400	0.714900	0.627500
C351	C35	0.429200	0.671100	0.805500
C361	C36	0.412400	0.555700	0.853400
C371	C37	0.415500	0.597800	0.920200
C381	C38	0.430200	0.714300	0.870900
C391	C39	0.438600	0.798300	0.877500
C401	C40	0.444700	0.837900	0.822300
C411	C41	0.310000	0.887000	0.118500
C421	C42	0.254600	0.945700	0.150400
C431	C43	0.141300	0.893700	0.082300
C441	C44	0.197700	0.837700	0.049200
C451	C45	0.399600	0.883800	0.141400
C461	C46	0.533500	0.822200	0.138200
C471	C47	0.565900	0.881200	0.185300
C481	C48	0.432200	0.941800	0.190700
C491	C49	0.375000	0.002600	0.220000
C501	C50	0.289200	0.004400	0.201300
C511	C51	0.232600	0.058500	0.675500
C521	C52	0.172500	0.106500	0.642700
C531	C53	0.279100	0.129400	0.564400
C541	C54	0.338600	0.082400	0.598200
C551	C55	0.203000	0.019300	0.733900
C561	C56	0.227200	0.935400	0.816100
C571	C57	0.138000	0.940100	0.835500
C581	C58	0.114700	0.027500	0.754900
C591	C59	0.057700	0.079900	0.721800
C601	C60	0.085600	0.116400	0.668800
C611	C61	0.063300	0.214400	0.244800
C621	C62	0.057200	0.296900	0.254300
C631	C63	0.051000	0.298300	0.136300
C641	C64	0.054600	0.214900	0.127500
C651	C65	0.070800	0.171100	0.305500
C661	C66	0.087600	0.055700	0.353400
C671	C67	0.084500	0.097800	0.420200
C681	C68	0.069800	0.214300	0.370900
C691	C69	0.061400	0.298300	0.377500
C701	C70	0.055300	0.337900	0.322300
C711	C71	0.190000	0.387000	0.618500
C721	C72	0.245400	0.445700	0.650400
C731	C73	0.358700	0.393700	0.582300
C741	C74	0.302300	0.337700	0.549200
C751	C75	0.100400	0.383800	0.641400
C761	C76	0.966500	0.322200	0.638200
C771	C77	0.934100	0.381200	0.685300
C781	C78	0.067800	0.441800	0.690700
C791	C79	0.125000	0.502600	0.720000
C801	C80	0.210800	0.504400	0.701300
C811	C81	0.267400	0.558500	0.175500
C821	C82	0.327500	0.606500	0.142700
C831	C83	0.220900	0.629400	0.064400
C841	C84	0.161400	0.582400	0.098200
C851	C85	0.297000	0.519300	0.233900
C861	C86	0.272800	0.435400	0.316100
C871	C87	0.362000	0.440100	0.335500
C881	C88	0.385300	0.527500	0.254900
C891	C89	0.442300	0.579900	0.221800
C901	C90	0.414400	0.616400	0.168800
C911	C91	0.563300	0.285600	0.255200
C921	C92	0.557200	0.203100	0.245700
C931	C93	0.551000	0.201700	0.363700
C941	C94	0.554600	0.285100	0.372500
C951	C95	0.570800	0.328900	0.194500
C961	C96	0.587600	0.444300	0.146600
C971	C97	0.584500	0.402200	0.079800
C981	C98	0.569800	0.285700	0.129100
C991	C99	0.561400	0.201700	0.122500
C1001	C100	0.555300	0.162100	0.177700
C1011	C101	0.690000	0.113000	0.881500
C1021	C102	0.745400	0.054300	0.849600
C1031	C103	0.858700	0.106300	0.917700
C1041	C104	0.802300	0.162300	0.950800
C1051	C105	0.600400	0.116200	0.858600
C1061	C106	0.466500	0.177800	0.861800
C1071	C107	0.434100	0.118800	0.814700
C1081	C108	0.567800	0.058200	0.809300
C1091	C109	0.625000	0.997400	0.780000
C1101	C110	0.710800	0.995600	0.798700
C1111	C111	0.767400	0.941500	0.324500
C1121	C112	0.827500	0.893500	0.357300
C1131	C113	0.720900	0.870600	0.435600
C1141	C114	0.661400	0.917600	0.401800
C1151	C115	0.797000	0.980700	0.266100
C1161	C116	0.772800	0.064600	0.183900
C1171	C117	0.862000	0.059900	0.164500
C1181	C118	0.885300	0.972500	0.245100
C1191	C119	0.942300	0.920100	0.278200
C1201	C120	0.914400	0.883600	0.331200
N11	N1	0.937700	0.826500	0.819000
N21	N2	0.946200	0.660500	0.802500
N31	N3	0.919600	0.907900	0.702600
N41	N4	0.923600	0.824500	0.571200
N51	N5	0.781400	0.666400	0.433400
N61	N6	0.667600	0.551400	0.368100
N71	N7	0.951500	0.677300	0.385200
N81	N8	0.018900	0.559200	0.288200
N91	N9	0.815800	0.452900	0.848100
N101	N10	0.697900	0.358900	0.913900
N111	N11	0.760600	0.526900	0.734500
N121	N12	0.582400	0.513600	0.694200
N131	N13	0.437700	0.673500	0.681000
N141	N14	0.446200	0.839500	0.697500
N151	N15	0.419600	0.592100	0.797400
N161	N16	0.423600	0.675500	0.928800
N171	N17	0.281400	0.833600	0.066600
N181	N18	0.167600	0.948600	0.131900
N191	N19	0.451500	0.822700	0.114800
N201	N20	0.518900	0.940800	0.211800
N211	N21	0.315800	0.047100	0.651900
N221	N22	0.197900	0.141100	0.586100
N231	N23	0.260600	0.973100	0.765500
N241	N24	0.082400	0.986400	0.805800
N251	N25	0.062300	0.173500	0.181000
N261	N26	0.053800	0.339500	0.197500
N271	N27	0.080400	0.092100	0.297400
N281	N28	0.076400	0.175500	0.428800
N291	N29	0.218600	0.333600	0.566600
N301	N30	0.332400	0.448600	0.631900
N311	N31	0.048500	0.322700	0.614800
N321	N32	0.981100	0.440800	0.711800
N331	N33	0.184200	0.547100	0.151900
N341	N34	0.302100	0.641100	0.086100
N351	N35	0.239400	0.473100	0.265500
N361	N36	0.417600	0.486400	0.305800
N371	N37	0.562300	0.326500	0.319000
N381	N38	0.553800	0.160500	0.302500
N391	N39	0.580400	0.407900	0.202600
N401	N40	0.576400	0.324500	0.071200
N411	N41	0.718600	0.166400	0.933400
N421	N42	0.832400	0.051400	0.868100
N431	N43	0.548500	0.177300	0.885200
N441	N44	0.481100	0.059200	0.788200
N451	N45	0.684200	0.952900	0.348100
N461	N46	0.802100	0.858900	0.413900
N471	N47	0.739400	0.026900	0.234500
N481	N48	0.917600	0.013600	0.194200
B11	B1	0.297100	0.301800	0.772600
F11	F1	0.358300	0.351600	0.803300
F21	F2	0.215400	0.336800	0.766600
F31	F3	0.283800	0.236900	0.809800
F41	F4	0.320100	0.270000	0.707300
B21	B2	0.689700	0.784600	0.639800
F51	F5	0.632400	0.727600	0.611500
F61	F6	0.645700	0.847100	0.675600
F71	F7	0.748700	0.752400	0.685000
F81	F8	0.738200	0.812300	0.586500
B31	B3	0.797100	0.198200	0.727400
F91	F9	0.858300	0.148400	0.696700
F101	F10	0.715400	0.163200	0.733400
F111	F11	0.783800	0.263100	0.690200
F121	F12	0.820100	0.230000	0.792700
B41	B4	0.189700	0.715400	0.860200
F131	F13	0.132400	0.772400	0.888500
F141	F14	0.145700	0.652900	0.824400
F151	F15	0.248700	0.747600	0.815000
F161	F16	0.238200	0.687700	0.913500
B51	B5	0.702900	0.698200	0.227400
F171	F17	0.641700	0.648400	0.196700
F181	F18	0.784600	0.663200	0.233400
F191	F19	0.716200	0.763100	0.190200
F201	F20	0.679900	0.730000	0.292700
B61	B6	0.310300	0.215400	0.360200
F211	F21	0.367600	0.272400	0.388500
F221	F22	0.354300	0.152900	0.324400
F231	F23	0.251300	0.247600	0.315000
F241	F24	0.261800	0.187700	0.413500
B71	B7	0.202900	0.801800	0.272600
F251	F25	0.141700	0.851600	0.303300
F261	F26	0.284600	0.836800	0.266600
F271	F27	0.216200	0.736900	0.309800
F281	F28	0.179900	0.770000	0.207300
B81	B8	0.810300	0.284600	0.139800
F291	F29	0.867600	0.227600	0.111500
F301	F30	0.854300	0.347100	0.175600
F311	F31	0.751300	0.252400	0.185000
F321	F32	0.761800	0.312300	0.086500
