data_XAZGAG_charged_PM
_symmetry_space_group_name_H-M	'P1'
_cell_length_a	6.543000
_cell_length_b	29.402000
_cell_length_c	16.849000
_cell_angle_alpha	90.000000
_cell_angle_beta	90.000000
_cell_angle_gamma	90.000000
_symmetry_Int_Tables_number 1

loop_
_symmetry_equiv_pos_as_xyz
'x,y,z'

loop_
_atom_site_label
_atom_site_type_symbol
_atom_site_fract_x
_atom_site_fract_y
_atom_site_fract_z
Ag11	Ag1	0.750000	0.978330	0.785050
Ag21	Ag2	0.250000	0.521670	0.285050
Ag31	Ag3	0.250000	0.021670	0.214950
Ag41	Ag4	0.750000	0.478330	0.714950
Ag51	Ag5	0.250000	0.831490	0.595900
Ag61	Ag6	0.250000	0.840450	0.977030
Ag71	Ag7	0.750000	0.668510	0.095900
Ag81	Ag8	0.750000	0.659550	0.477030
Ag91	Ag9	0.750000	0.168510	0.404100
Ag101	Ag10	0.750000	0.159550	0.022970
Ag111	Ag11	0.250000	0.331490	0.904100
Ag121	Ag12	0.250000	0.340450	0.522970
Ag131	Ag13	0.750000	0.846730	0.286420
Ag141	Ag14	0.250000	0.653270	0.786420
Ag151	Ag15	0.250000	0.153270	0.713580
Ag161	Ag16	0.750000	0.346730	0.213580
H11	H1	0.946600	0.890500	0.854800
H21	H2	0.063800	0.929000	0.898500
H31	H3	0.131200	0.830300	0.788600
H41	H4	0.056400	0.922400	0.662300
H51	H5	0.948800	0.885700	0.713600
H61	H6	0.554600	0.744200	0.582700
H71	H7	0.453200	0.747200	0.499500
H81	H8	0.869300	0.750100	0.379900
H91	H9	0.445600	0.814100	0.424100
H101	H10	0.555000	0.858000	0.453000
H111	H11	0.369100	0.936400	0.080400
H121	H12	0.553700	0.935900	0.204000
H131	H13	0.438900	0.936400	0.284600
H141	H14	0.435700	0.824900	0.148000
H151	H15	0.553500	0.868200	0.121400
H161	H16	0.053400	0.609500	0.354800
H171	H17	0.936200	0.571000	0.398500
H181	H18	0.868800	0.669700	0.288600
H191	H19	0.943600	0.577600	0.162300
H201	H20	0.051200	0.614300	0.213600
H211	H21	0.445400	0.755800	0.082700
H221	H22	0.546800	0.752800	0.999500
H231	H23	0.130700	0.749900	0.879900
H241	H24	0.554400	0.685900	0.924100
H251	H25	0.445000	0.642000	0.953000
H261	H26	0.630900	0.563600	0.580400
H271	H27	0.446300	0.564100	0.704000
H281	H28	0.561100	0.563600	0.784600
H291	H29	0.564300	0.675100	0.648000
H301	H30	0.446500	0.631800	0.621400
H311	H31	0.446600	0.109500	0.145200
H321	H32	0.563800	0.071000	0.101500
H331	H33	0.631200	0.169700	0.211400
H341	H34	0.556400	0.077600	0.337700
H351	H35	0.448800	0.114300	0.286400
H361	H36	0.054600	0.255800	0.417300
H371	H37	0.953200	0.252800	0.500500
H381	H38	0.369300	0.249900	0.620100
H391	H39	0.945600	0.185900	0.575900
H401	H40	0.055000	0.142000	0.547000
H411	H41	0.869100	0.063600	0.919600
H421	H42	0.053700	0.064100	0.796000
H431	H43	0.938900	0.063600	0.715400
H441	H44	0.935700	0.175100	0.852000
H451	H45	0.053500	0.131800	0.878600
H461	H46	0.553400	0.390500	0.645200
H471	H47	0.436200	0.429000	0.601500
H481	H48	0.368800	0.330300	0.711400
H491	H49	0.443600	0.422400	0.837700
H501	H50	0.551200	0.385700	0.786400
H511	H51	0.945400	0.244200	0.917300
H521	H52	0.046800	0.247200	0.000500
H531	H53	0.630700	0.250100	0.120100
H541	H54	0.054400	0.314100	0.075900
H551	H55	0.945000	0.358000	0.047000
H561	H56	0.130900	0.436400	0.419600
H571	H57	0.946300	0.435900	0.296000
H581	H58	0.061100	0.436400	0.215400
H591	H59	0.064300	0.324900	0.352000
H601	H60	0.946500	0.368200	0.378600
H611	H61	0.053400	0.109500	0.145200
H621	H62	0.936200	0.071000	0.101500
H631	H63	0.868800	0.169700	0.211400
H641	H64	0.943600	0.077600	0.337700
H651	H65	0.051200	0.114300	0.286400
H661	H66	0.445400	0.255800	0.417300
H671	H67	0.546800	0.252800	0.500500
H681	H68	0.130700	0.249900	0.620100
H691	H69	0.554400	0.185900	0.575900
H701	H70	0.445000	0.142000	0.547000
H711	H71	0.630900	0.063600	0.919600
H721	H72	0.446300	0.064100	0.796000
H731	H73	0.561100	0.063600	0.715400
H741	H74	0.564300	0.175100	0.852000
H751	H75	0.446500	0.131800	0.878600
H761	H76	0.946600	0.390500	0.645200
H771	H77	0.063800	0.429000	0.601500
H781	H78	0.131200	0.330300	0.711400
H791	H79	0.056400	0.422400	0.837700
H801	H80	0.948800	0.385700	0.786400
H811	H81	0.554600	0.244200	0.917300
H821	H82	0.453200	0.247200	0.000500
H831	H83	0.869300	0.250100	0.120100
H841	H84	0.445600	0.314100	0.075900
H851	H85	0.555000	0.358000	0.047000
H861	H86	0.369100	0.436400	0.419600
H871	H87	0.553700	0.435900	0.296000
H881	H88	0.438900	0.436400	0.215400
H891	H89	0.435700	0.324900	0.352000
H901	H90	0.553500	0.368200	0.378600
H911	H91	0.553400	0.890500	0.854800
H921	H92	0.436200	0.929000	0.898500
H931	H93	0.368800	0.830300	0.788600
H941	H94	0.443600	0.922400	0.662300
H951	H95	0.551200	0.885700	0.713600
H961	H96	0.945400	0.744200	0.582700
H971	H97	0.046800	0.747200	0.499500
H981	H98	0.630700	0.750100	0.379900
H991	H99	0.054400	0.814100	0.424100
H1001	H100	0.945000	0.858000	0.453000
H1011	H101	0.130900	0.936400	0.080400
H1021	H102	0.946300	0.935900	0.204000
H1031	H103	0.061100	0.936400	0.284600
H1041	H104	0.064300	0.824900	0.148000
H1051	H105	0.946500	0.868200	0.121400
H1061	H106	0.446600	0.609500	0.354800
H1071	H107	0.563800	0.571000	0.398500
H1081	H108	0.631200	0.669700	0.288600
H1091	H109	0.556400	0.577600	0.162300
H1101	H110	0.448800	0.614300	0.213600
H1111	H111	0.054600	0.755800	0.082700
H1121	H112	0.953200	0.752800	0.999500
H1131	H113	0.369300	0.749900	0.879900
H1141	H114	0.945600	0.685900	0.924100
H1151	H115	0.055000	0.642000	0.953000
H1161	H116	0.869100	0.563600	0.580400
H1171	H117	0.053700	0.564100	0.704000
H1181	H118	0.938900	0.563600	0.784600
H1191	H119	0.935700	0.675100	0.648000
H1201	H120	0.053500	0.631800	0.621400
H1211	H121	0.250000	0.986900	0.818000
H1221	H122	0.250000	0.981300	0.726400
H1231	H123	0.250000	0.826000	0.271700
H1241	H124	0.250000	0.868700	0.326000
H1251	H125	0.750000	0.513100	0.318000
H1261	H126	0.750000	0.518700	0.226400
H1271	H127	0.750000	0.674000	0.771700
H1281	H128	0.750000	0.631300	0.826000
H1291	H129	0.750000	0.013100	0.182000
H1301	H130	0.750000	0.018700	0.273600
H1311	H131	0.750000	0.174000	0.728300
H1321	H132	0.750000	0.131300	0.674000
H1331	H133	0.250000	0.486900	0.682000
H1341	H134	0.250000	0.481300	0.773600
H1351	H135	0.250000	0.326000	0.228300
H1361	H136	0.250000	0.368700	0.174000
H1371	H137	0.750000	0.856900	0.577200
H1381	H138	0.750000	0.812600	0.627400
H1391	H139	0.250000	0.643100	0.077200
H1401	H140	0.250000	0.687400	0.127400
H1411	H141	0.250000	0.143100	0.422800
H1421	H142	0.250000	0.187400	0.372600
H1431	H143	0.750000	0.356900	0.922800
H1441	H144	0.750000	0.312600	0.872600
C11	C1	0.066700	0.909270	0.853200
C21	C2	0.066500	0.905200	0.710500
C31	C3	0.566900	0.757340	0.530800
C41	C4	0.562900	0.825400	0.452100
C51	C5	0.435000	0.924830	0.231400
C61	C6	0.433600	0.857570	0.148500
C71	C7	0.933300	0.590730	0.353200
C81	C8	0.933500	0.594800	0.210500
C91	C9	0.433100	0.742660	0.030800
C101	C10	0.437100	0.674600	0.952100
C111	C11	0.565000	0.575170	0.731400
C121	C12	0.566400	0.642430	0.648500
C131	C13	0.566700	0.090730	0.146800
C141	C14	0.566500	0.094800	0.289500
C151	C15	0.066900	0.242660	0.469200
C161	C16	0.062900	0.174600	0.547900
C171	C17	0.935000	0.075170	0.768600
C181	C18	0.933600	0.142430	0.851500
C191	C19	0.433300	0.409270	0.646800
C201	C20	0.433500	0.405200	0.789500
C211	C21	0.933100	0.257340	0.969200
C221	C22	0.937100	0.325400	0.047900
C231	C23	0.065000	0.424830	0.268600
C241	C24	0.066400	0.357570	0.351500
C251	C25	0.933300	0.090730	0.146800
C261	C26	0.933500	0.094800	0.289500
C271	C27	0.433100	0.242660	0.469200
C281	C28	0.437100	0.174600	0.547900
C291	C29	0.565000	0.075170	0.768600
C301	C30	0.566400	0.142430	0.851500
C311	C31	0.066700	0.409270	0.646800
C321	C32	0.066500	0.405200	0.789500
C331	C33	0.566900	0.257340	0.969200
C341	C34	0.562900	0.325400	0.047900
C351	C35	0.435000	0.424830	0.268600
C361	C36	0.433600	0.357570	0.351500
C371	C37	0.433300	0.909270	0.853200
C381	C38	0.433500	0.905200	0.710500
C391	C39	0.933100	0.757340	0.530800
C401	C40	0.937100	0.825400	0.452100
C411	C41	0.065000	0.924830	0.231400
C421	C42	0.066400	0.857570	0.148500
C431	C43	0.566700	0.590730	0.353200
C441	C44	0.566500	0.594800	0.210500
C451	C45	0.066900	0.742660	0.030800
C461	C46	0.062900	0.674600	0.952100
C471	C47	0.935000	0.575170	0.731400
C481	C48	0.933600	0.642430	0.648500
C491	C49	0.250000	0.849500	0.786700
C501	C50	0.250000	0.965000	0.775800
C511	C51	0.250000	0.924800	0.106900
C521	C52	0.250000	0.858700	0.271900
C531	C53	0.750000	0.650500	0.286700
C541	C54	0.750000	0.535000	0.275800
C551	C55	0.750000	0.575200	0.606900
C561	C56	0.750000	0.641300	0.771900
C571	C57	0.750000	0.150500	0.213300
C581	C58	0.750000	0.035000	0.224200
C591	C59	0.750000	0.075200	0.893100
C601	C60	0.750000	0.141300	0.728100
C611	C61	0.250000	0.349500	0.713300
C621	C62	0.250000	0.465000	0.724200
C631	C63	0.250000	0.424800	0.393100
C641	C64	0.250000	0.358700	0.228100
C651	C65	0.750000	0.760300	0.407900
C661	C66	0.750000	0.824200	0.574300
C671	C67	0.250000	0.739700	0.907900
C681	C68	0.250000	0.675800	0.074300
C691	C69	0.250000	0.239700	0.592100
C701	C70	0.250000	0.175800	0.425700
C711	C71	0.750000	0.260300	0.092100
C721	C72	0.750000	0.324200	0.925700
N11	N1	0.062100	0.936560	0.778800
N21	N2	0.562300	0.807910	0.535100
N31	N3	0.437700	0.874520	0.232000
N41	N4	0.937900	0.563440	0.278800
N51	N5	0.437700	0.692090	0.035100
N61	N6	0.562300	0.625480	0.732000
N71	N7	0.562100	0.063440	0.221200
N81	N8	0.062300	0.192090	0.464900
N91	N9	0.937700	0.125480	0.768000
N101	N10	0.437900	0.436560	0.721200
N111	N11	0.937700	0.307910	0.964900
N121	N12	0.062300	0.374520	0.268000
N131	N13	0.937900	0.063440	0.221200
N141	N14	0.437700	0.192090	0.464900
N151	N15	0.562300	0.125480	0.768000
N161	N16	0.062100	0.436560	0.721200
N171	N17	0.562300	0.307910	0.964900
N181	N18	0.437700	0.374520	0.268000
N191	N19	0.437900	0.936560	0.778800
N201	N20	0.937700	0.807910	0.535100
N211	N21	0.062300	0.874520	0.232000
N221	N22	0.562100	0.563440	0.278800
N231	N23	0.062300	0.692090	0.035100
N241	N24	0.937700	0.625480	0.732000
N251	N25	0.750000	0.961900	0.012000
N261	N26	0.250000	0.538100	0.512000
N271	N27	0.250000	0.038100	0.988000
N281	N28	0.750000	0.461900	0.488000
N291	N29	0.250000	0.880200	0.857100
N301	N30	0.250000	0.876400	0.711200
N311	N31	0.250000	0.874400	0.105800
N321	N32	0.250000	0.941800	0.190000
N331	N33	0.750000	0.619800	0.357100
N341	N34	0.750000	0.623600	0.211200
N351	N35	0.750000	0.625600	0.605800
N361	N36	0.750000	0.558200	0.690000
N371	N37	0.750000	0.119800	0.142900
N381	N38	0.750000	0.123600	0.288800
N391	N39	0.750000	0.125600	0.894200
N401	N40	0.750000	0.058200	0.810000
N411	N41	0.250000	0.380200	0.642900
N421	N42	0.250000	0.376400	0.788800
N431	N43	0.250000	0.374400	0.394200
N441	N44	0.250000	0.441800	0.310000
N451	N45	0.750000	0.740100	0.489800
N461	N46	0.750000	0.810200	0.410000
N471	N47	0.250000	0.759900	0.989800
N481	N48	0.250000	0.689800	0.910000
N491	N49	0.250000	0.259900	0.510200
N501	N50	0.250000	0.189800	0.590000
N511	N51	0.750000	0.240100	0.010200
N521	N52	0.750000	0.310200	0.090000
O11	O1	0.750000	0.971900	0.943500
O21	O2	0.750000	0.989500	0.058500
O31	O3	0.750000	0.923400	0.031500
O41	O4	0.250000	0.528100	0.443500
O51	O5	0.250000	0.510500	0.558500
O61	O6	0.250000	0.576600	0.531500
O71	O7	0.250000	0.028100	0.056500
O81	O8	0.250000	0.010500	0.941500
O91	O9	0.250000	0.076600	0.968500
O101	O10	0.750000	0.471900	0.556500
O111	O11	0.750000	0.489500	0.441500
O121	O12	0.750000	0.423400	0.468500
S11	S1	0.750000	0.775090	0.789120
O131	O13	0.921200	0.764200	0.739000
O141	O14	0.578800	0.764200	0.739000
O151	O15	0.750000	0.821300	0.806000
O161	O16	0.750000	0.749000	0.857400
S21	S2	0.250000	0.724910	0.289120
O171	O17	0.078800	0.735800	0.239000
O181	O18	0.421200	0.735800	0.239000
O191	O19	0.250000	0.678700	0.306000
O201	O20	0.250000	0.751000	0.357400
S31	S3	0.250000	0.224910	0.210880
O211	O21	0.421200	0.235800	0.261000
O221	O22	0.078800	0.235800	0.261000
O231	O23	0.250000	0.178700	0.194000
O241	O24	0.250000	0.251000	0.142600
S41	S4	0.750000	0.275090	0.710880
O251	O25	0.578800	0.264200	0.761000
O261	O26	0.921200	0.264200	0.761000
O271	O27	0.750000	0.321300	0.694000
O281	O28	0.750000	0.249000	0.642600
