data_XEBHOC_clean_PM
_symmetry_space_group_name_H-M	'P1'
_cell_length_a	15.376000
_cell_length_b	19.848200
_cell_length_c	19.848200
_cell_angle_alpha	73.358300
_cell_angle_beta	67.210900
_cell_angle_gamma	67.210900
_symmetry_Int_Tables_number 1

loop_
_symmetry_equiv_pos_as_xyz
'x,y,z'

loop_
_atom_site_label
_atom_site_type_symbol
_atom_site_fract_x
_atom_site_fract_y
_atom_site_fract_z
Cu11	Cu1	0.531000	0.532000	0.532000
Cu21	Cu2	0.095000	0.968000	0.968000
Cu31	Cu3	0.905000	0.032000	0.032000
Cu41	Cu4	0.469000	0.468000	0.468000
H11	H1	0.666400	0.497800	0.244800
H21	H2	0.775900	0.528900	0.132100
H31	H3	0.865200	0.629600	0.229400
H41	H4	0.753300	0.599600	0.342200
H51	H5	0.930000	0.622900	0.959100
H61	H6	0.909000	0.002200	0.255200
H71	H7	0.936900	0.971100	0.367900
H81	H8	0.224200	0.870400	0.270600
H91	H9	0.195100	0.900400	0.157800
H101	H10	0.012000	0.877100	0.540900
H111	H11	0.091000	0.744800	0.997800
H121	H12	0.063100	0.632100	0.028900
H131	H13	0.775800	0.729400	0.129600
H141	H14	0.804900	0.842200	0.099600
H151	H15	0.988000	0.459100	0.122900
H161	H16	0.333600	0.755200	0.502200
H171	H17	0.224100	0.867900	0.471100
H181	H18	0.134800	0.770600	0.370400
H191	H19	0.246700	0.657800	0.400400
H201	H20	0.070000	0.040900	0.377100
H211	H21	0.333600	0.502200	0.755200
H221	H22	0.224100	0.471100	0.867900
H231	H23	0.134800	0.370400	0.770600
H241	H24	0.246700	0.400400	0.657800
H251	H25	0.070000	0.377100	0.040900
H261	H26	0.091000	0.997800	0.744800
H271	H27	0.063100	0.028900	0.632100
H281	H28	0.775800	0.129600	0.729400
H291	H29	0.804900	0.099600	0.842200
H301	H30	0.988000	0.122900	0.459100
H311	H31	0.909000	0.255200	0.002200
H321	H32	0.936900	0.367900	0.971100
H331	H33	0.224200	0.270600	0.870400
H341	H34	0.195100	0.157800	0.900400
H351	H35	0.012000	0.540900	0.877100
H361	H36	0.666400	0.244800	0.497800
H371	H37	0.775900	0.132100	0.528900
H381	H38	0.865200	0.229400	0.629600
H391	H39	0.753300	0.342200	0.599600
H401	H40	0.930000	0.959100	0.622900
C11	C1	0.624910	0.528370	0.377370
C21	C2	0.697090	0.546250	0.304790
C31	C3	0.705690	0.524900	0.241920
C41	C4	0.771930	0.543030	0.174310
C51	C5	0.832110	0.581920	0.169540
C61	C6	0.824930	0.603220	0.232320
C71	C7	0.757670	0.585300	0.300000
C81	C8	0.958220	0.573190	0.975970
C91	C9	0.030650	0.971630	0.122630
C101	C10	0.048130	0.953750	0.195210
C111	C11	0.972510	0.975100	0.258080
C121	C12	0.989270	0.956970	0.325690
C131	C13	0.083570	0.918080	0.330460
C141	C14	0.160470	0.896780	0.267680
C151	C15	0.142970	0.914700	0.200000
C161	C16	0.007380	0.926810	0.524030
C171	C17	0.969350	0.877370	0.028370
C181	C18	0.951870	0.804790	0.046250
C191	C19	0.027490	0.741920	0.024900
C201	C20	0.010730	0.674310	0.043030
C211	C21	0.916430	0.669540	0.081920
C221	C22	0.839530	0.732320	0.103220
C231	C23	0.857030	0.800000	0.085300
C241	C24	0.992620	0.475970	0.073190
C251	C25	0.375090	0.622630	0.471630
C261	C26	0.302910	0.695210	0.453750
C271	C27	0.294310	0.758080	0.475100
C281	C28	0.228070	0.825690	0.456970
C291	C29	0.167890	0.830460	0.418080
C301	C30	0.175070	0.767680	0.396780
C311	C31	0.242330	0.700000	0.414700
C321	C32	0.041780	0.024030	0.426810
C331	C33	0.375090	0.471630	0.622630
C341	C34	0.302910	0.453750	0.695210
C351	C35	0.294310	0.475100	0.758080
C361	C36	0.228070	0.456970	0.825690
C371	C37	0.167890	0.418080	0.830460
C381	C38	0.175070	0.396780	0.767680
C391	C39	0.242330	0.414700	0.700000
C401	C40	0.041780	0.426810	0.024030
C411	C41	0.969350	0.028370	0.877370
C421	C42	0.951870	0.046250	0.804790
C431	C43	0.027490	0.024900	0.741920
C441	C44	0.010730	0.043030	0.674310
C451	C45	0.916430	0.081920	0.669540
C461	C46	0.839530	0.103220	0.732320
C471	C47	0.857030	0.085300	0.800000
C481	C48	0.992620	0.073190	0.475970
C491	C49	0.030650	0.122630	0.971630
C501	C50	0.048130	0.195210	0.953750
C511	C51	0.972510	0.258080	0.975100
C521	C52	0.989270	0.325690	0.956970
C531	C53	0.083570	0.330460	0.918080
C541	C54	0.160470	0.267680	0.896780
C551	C55	0.142970	0.200000	0.914700
C561	C56	0.007380	0.524030	0.926810
C571	C57	0.624910	0.377370	0.528370
C581	C58	0.697090	0.304790	0.546250
C591	C59	0.705690	0.241920	0.524900
C601	C60	0.771930	0.174310	0.543030
C611	C61	0.832110	0.169540	0.581920
C621	C62	0.824930	0.232320	0.603220
C631	C63	0.757670	0.300000	0.585300
C641	C64	0.958220	0.975970	0.573190
C651	C65	0.949960	0.550040	0.050040
C661	C66	0.050040	0.949960	0.449960
C671	C67	0.050040	0.449960	0.949960
C681	C68	0.949960	0.050040	0.550040
N11	N1	0.899180	0.600820	0.100820
N21	N2	0.100820	0.899180	0.399180
N31	N3	0.100820	0.399180	0.899180
N41	N4	0.899180	0.100820	0.600820
O11	O1	0.622110	0.548920	0.432300
O21	O2	0.570520	0.494190	0.378170
O31	O3	0.103330	0.951080	0.067700
O41	O4	0.942880	0.005810	0.121830
O51	O5	0.896670	0.932300	0.048920
O61	O6	0.057120	0.878170	0.994190
O71	O7	0.377890	0.567700	0.451080
O81	O8	0.429480	0.621830	0.505810
O91	O9	0.377890	0.451080	0.567700
O101	O10	0.429480	0.505810	0.621830
O111	O11	0.896670	0.048920	0.932300
O121	O12	0.057120	0.994190	0.878170
O131	O13	0.103330	0.067700	0.951080
O141	O14	0.942880	0.121830	0.005810
O151	O15	0.622110	0.432300	0.548920
O161	O16	0.570520	0.378170	0.494190
