data_XEFKOI_clean_PM
_symmetry_space_group_name_H-M	'P1'
_cell_length_a	17.765000
_cell_length_b	17.765000
_cell_length_c	7.567000
_cell_angle_alpha	90.000000
_cell_angle_beta	90.000000
_cell_angle_gamma	90.000000
_symmetry_Int_Tables_number 1

loop_
_symmetry_equiv_pos_as_xyz
'x,y,z'

loop_
_atom_site_label
_atom_site_type_symbol
_atom_site_fract_x
_atom_site_fract_y
_atom_site_fract_z
N11	N1	0.500300	0.092200	0.586200
C11	C1	0.551400	0.146800	0.587900
H11	H1	0.586900	0.147000	0.678200
C21	C2	0.554700	0.203700	0.461700
H21	H2	0.589800	0.242400	0.470300
C31	C3	0.504300	0.200900	0.323900
C41	C4	0.450200	0.145500	0.324100
H31	H3	0.415800	0.142400	0.231800
C51	C5	0.447200	0.094700	0.461500
H41	H4	0.407000	0.061300	0.467700
N21	N2	0.512600	0.260800	0.196300
N31	N3	0.490100	0.240000	0.047900
C61	C6	0.549600	0.408000	0.797700
H51	H5	0.582400	0.448300	0.813100
C71	C7	0.553500	0.349300	0.914000
H61	H6	0.593800	0.344600	0.991700
C81	C8	0.496300	0.297900	0.912800
C91	C9	0.443100	0.301000	0.782100
H71	H7	0.404600	0.265600	0.776700
C101	C10	0.448200	0.357400	0.659600
H81	H8	0.412900	0.359100	0.568900
N41	N4	0.501800	0.410300	0.665000
N51	N5	0.000300	0.592200	0.086200
C111	C11	0.051400	0.646800	0.087900
H91	H9	0.086900	0.647000	0.178200
C121	C12	0.054700	0.703700	0.961700
H101	H10	0.089800	0.742400	0.970300
C131	C13	0.004300	0.700900	0.823900
C141	C14	0.950200	0.645500	0.824100
H111	H11	0.915800	0.642400	0.731800
C151	C15	0.947200	0.594700	0.961500
H121	H12	0.907000	0.561300	0.967700
N61	N6	0.012600	0.760800	0.696300
N71	N7	0.990100	0.740000	0.547900
C161	C16	0.049600	0.908000	0.297700
H131	H13	0.082400	0.948300	0.313100
C171	C17	0.053500	0.849300	0.414000
H141	H14	0.093800	0.844600	0.491700
C181	C18	0.996300	0.797900	0.412800
C191	C19	0.943100	0.801000	0.282100
H151	H15	0.904600	0.765600	0.276700
C201	C20	0.948200	0.857400	0.159600
H161	H16	0.912900	0.859100	0.068900
N81	N8	0.001800	0.910300	0.165000
N91	N9	0.499700	0.907800	0.586200
C211	C21	0.448600	0.853200	0.587900
H171	H17	0.413100	0.853000	0.678200
C221	C22	0.445300	0.796300	0.461700
H181	H18	0.410200	0.757600	0.470300
C231	C23	0.495700	0.799100	0.323900
C241	C24	0.549800	0.854500	0.324100
H191	H19	0.584200	0.857600	0.231800
C251	C25	0.552800	0.905300	0.461500
H201	H20	0.593000	0.938700	0.467700
N101	N10	0.487400	0.739200	0.196300
N111	N11	0.509900	0.760000	0.047900
C261	C26	0.450400	0.592000	0.797700
H211	H21	0.417600	0.551700	0.813100
C271	C27	0.446500	0.650700	0.914000
H221	H22	0.406200	0.655400	0.991700
C281	C28	0.503700	0.702100	0.912800
C291	C29	0.556900	0.699000	0.782100
H231	H23	0.595400	0.734400	0.776700
C301	C30	0.551800	0.642600	0.659600
H241	H24	0.587100	0.640900	0.568900
N121	N12	0.498200	0.589700	0.665000
N131	N13	0.999700	0.407800	0.086200
C311	C31	0.948600	0.353200	0.087900
H251	H25	0.913100	0.353000	0.178200
C321	C32	0.945300	0.296300	0.961700
H261	H26	0.910200	0.257600	0.970300
C331	C33	0.995700	0.299100	0.823900
C341	C34	0.049800	0.354500	0.824100
H271	H27	0.084200	0.357600	0.731800
C351	C35	0.052800	0.405300	0.961500
H281	H28	0.093000	0.438700	0.967700
N141	N14	0.987400	0.239200	0.696300
N151	N15	0.009900	0.260000	0.547900
C361	C36	0.950400	0.092000	0.297700
H291	H29	0.917600	0.051700	0.313100
C371	C37	0.946500	0.150700	0.414000
H301	H30	0.906200	0.155400	0.491700
C381	C38	0.003700	0.202100	0.412800
C391	C39	0.056900	0.199000	0.282100
H311	H31	0.095400	0.234400	0.276700
C401	C40	0.051800	0.142600	0.159600
H321	H32	0.087100	0.140900	0.068900
N161	N16	0.998200	0.089700	0.165000
N171	N17	0.092200	0.499700	0.413800
C411	C41	0.146800	0.448600	0.412100
H331	H33	0.147000	0.413100	0.321800
C421	C42	0.203700	0.445300	0.538300
H341	H34	0.242400	0.410200	0.529700
C431	C43	0.200900	0.495700	0.676100
C441	C44	0.145500	0.549800	0.675900
H351	H35	0.142400	0.584200	0.768200
C451	C45	0.094700	0.552800	0.538500
H361	H36	0.061300	0.593000	0.532300
N181	N18	0.260800	0.487400	0.803700
N191	N19	0.240000	0.509900	0.952100
C461	C46	0.408000	0.450400	0.202300
H371	H37	0.448300	0.417600	0.186900
C471	C47	0.349300	0.446500	0.086000
H381	H38	0.344600	0.406200	0.008300
C481	C48	0.297900	0.503700	0.087200
C491	C49	0.301000	0.556900	0.217900
H391	H39	0.265600	0.595400	0.223300
C501	C50	0.357400	0.551800	0.340400
H401	H40	0.359100	0.587100	0.431100
N201	N20	0.410300	0.498200	0.335000
N211	N21	0.592200	0.999700	0.913800
C511	C51	0.646800	0.948600	0.912100
H411	H41	0.647000	0.913100	0.821800
C521	C52	0.703700	0.945300	0.038300
H421	H42	0.742400	0.910200	0.029700
C531	C53	0.700900	0.995700	0.176100
C541	C54	0.645500	0.049800	0.175900
H431	H43	0.642400	0.084200	0.268200
C551	C55	0.594700	0.052800	0.038500
H441	H44	0.561300	0.093000	0.032300
N221	N22	0.760800	0.987400	0.303700
N231	N23	0.740000	0.009900	0.452100
C561	C56	0.908000	0.950400	0.702300
H451	H45	0.948300	0.917600	0.686900
C571	C57	0.849300	0.946500	0.586000
H461	H46	0.844600	0.906200	0.508300
C581	C58	0.797900	0.003700	0.587200
C591	C59	0.801000	0.056900	0.717900
H471	H47	0.765600	0.095400	0.723300
C601	C60	0.857400	0.051800	0.840400
H481	H48	0.859100	0.087100	0.931100
N241	N24	0.910300	0.998200	0.835000
N251	N25	0.907800	0.500300	0.413800
C611	C61	0.853200	0.551400	0.412100
H491	H49	0.853000	0.586900	0.321800
C621	C62	0.796300	0.554700	0.538300
H501	H50	0.757600	0.589800	0.529700
C631	C63	0.799100	0.504300	0.676100
C641	C64	0.854500	0.450200	0.675900
H511	H51	0.857600	0.415800	0.768200
C651	C65	0.905300	0.447200	0.538500
H521	H52	0.938700	0.407000	0.532300
N261	N26	0.739200	0.512600	0.803700
N271	N27	0.760000	0.490100	0.952100
C661	C66	0.592000	0.549600	0.202300
H531	H53	0.551700	0.582400	0.186900
C671	C67	0.650700	0.553500	0.086000
H541	H54	0.655400	0.593800	0.008300
C681	C68	0.702100	0.496300	0.087200
C691	C69	0.699000	0.443100	0.217900
H551	H55	0.734400	0.404600	0.223300
C701	C70	0.642600	0.448200	0.340400
H561	H56	0.640900	0.412900	0.431100
N281	N28	0.589700	0.501800	0.335000
N291	N29	0.407800	0.000300	0.913800
C711	C71	0.353200	0.051400	0.912100
H571	H57	0.353000	0.086900	0.821800
C721	C72	0.296300	0.054700	0.038300
H581	H58	0.257600	0.089800	0.029700
C731	C73	0.299100	0.004300	0.176100
C741	C74	0.354500	0.950200	0.175900
H591	H59	0.357600	0.915800	0.268200
C751	C75	0.405300	0.947200	0.038500
H601	H60	0.438700	0.907000	0.032300
N301	N30	0.239200	0.012600	0.303700
N311	N31	0.260000	0.990100	0.452100
C761	C76	0.092000	0.049600	0.702300
H611	H61	0.051700	0.082400	0.686900
C771	C77	0.150700	0.053500	0.586000
H621	H62	0.155400	0.093800	0.508300
C781	C78	0.202100	0.996300	0.587200
C791	C79	0.199000	0.943100	0.717900
H631	H63	0.234400	0.904600	0.723300
C801	C80	0.142600	0.948200	0.840400
H641	H64	0.140900	0.912900	0.931100
N321	N32	0.089700	0.001800	0.835000
Cu11	Cu1	0.500000	0.000000	0.750000
Cu21	Cu2	0.000000	0.500000	0.250000
Cu31	Cu3	0.500000	0.500000	0.500000
Cu41	Cu4	0.000000	0.000000	0.000000
