data_XEGJOK_clean_PM
_symmetry_space_group_name_H-M	'P1'
_cell_length_a	13.356000
_cell_length_b	19.441300
_cell_length_c	19.441300
_cell_angle_alpha	102.158000
_cell_angle_beta	93.847400
_cell_angle_gamma	93.847400
_symmetry_Int_Tables_number 1

loop_
_symmetry_equiv_pos_as_xyz
'x,y,z'

loop_
_atom_site_label
_atom_site_type_symbol
_atom_site_fract_x
_atom_site_fract_y
_atom_site_fract_z
Gd11	Gd1	0.352470	0.984790	0.461260
Gd21	Gd2	0.147530	0.538740	0.015210
Gd31	Gd3	0.647530	0.015210	0.538740
Gd41	Gd4	0.852470	0.461260	0.984790
H11	H1	0.295900	0.830700	0.598100
H21	H2	0.570100	0.883600	0.696400
H31	H3	0.340200	0.573400	0.811800
H41	H4	0.284700	0.749500	0.943700
H51	H5	0.322300	0.146600	0.569800
H61	H6	0.506400	0.163300	0.743100
H71	H7	0.204100	0.401900	0.169300
H81	H8	0.929900	0.303600	0.116400
H91	H9	0.159800	0.188200	0.426600
H101	H10	0.215300	0.056300	0.250500
H111	H11	0.177700	0.430200	0.853400
H121	H12	0.993600	0.256900	0.836700
H131	H13	0.704100	0.169300	0.401900
H141	H14	0.429900	0.116400	0.303600
H151	H15	0.659800	0.426600	0.188200
H161	H16	0.715300	0.250500	0.056300
H171	H17	0.677700	0.853400	0.430200
H181	H18	0.493600	0.836700	0.256900
H191	H19	0.795900	0.598100	0.830700
H201	H20	0.070100	0.696400	0.883600
H211	H21	0.840200	0.811800	0.573400
H221	H22	0.784700	0.943700	0.749500
H231	H23	0.822300	0.569800	0.146600
H241	H24	0.006400	0.743100	0.163300
C11	C1	0.458100	0.908800	0.585200
C21	C2	0.437500	0.861900	0.636700
C31	C3	0.344400	0.826400	0.633200
C41	C4	0.320400	0.785500	0.678900
C51	C5	0.388600	0.776800	0.732800
C61	C6	0.480400	0.814600	0.737200
C71	C7	0.507400	0.858300	0.690700
C81	C8	0.364800	0.733500	0.787100
C91	C9	0.367800	0.660900	0.775700
C101	C10	0.337500	0.622100	0.822100
C111	C11	0.303000	0.655500	0.884100
C121	C12	0.303800	0.726600	0.900200
C131	C13	0.333200	0.765600	0.851800
C141	C14	0.262600	0.612000	0.934400
C151	C15	0.495400	0.098900	0.608500
C161	C16	0.420500	0.141800	0.650600
C171	C17	0.335700	0.160800	0.618600
C181	C18	0.269400	0.201300	0.658300
C191	C19	0.284800	0.223100	0.730700
C201	C20	0.376000	0.207900	0.762300
C211	C21	0.444200	0.169800	0.722000
C221	C22	0.041900	0.414800	0.091200
C231	C23	0.062500	0.363300	0.138100
C241	C24	0.155600	0.366800	0.173600
C251	C25	0.179600	0.321100	0.214500
C261	C26	0.111400	0.267200	0.223200
C271	C27	0.019600	0.262800	0.185400
C281	C28	0.992600	0.309300	0.141700
C291	C29	0.135200	0.212900	0.266500
C301	C30	0.132200	0.224300	0.339100
C311	C31	0.162500	0.177900	0.377900
C321	C32	0.197000	0.115900	0.344500
C331	C33	0.196200	0.099800	0.273400
C341	C34	0.166800	0.148200	0.234400
C351	C35	0.237400	0.065600	0.388000
C361	C36	0.004600	0.391500	0.901100
C371	C37	0.079500	0.349400	0.858200
C381	C38	0.164300	0.381400	0.839200
C391	C39	0.230600	0.341700	0.798700
C401	C40	0.215200	0.269300	0.776900
C411	C41	0.124000	0.237700	0.792100
C421	C42	0.055800	0.278000	0.830200
C431	C43	0.541900	0.091200	0.414800
C441	C44	0.562500	0.138100	0.363300
C451	C45	0.655600	0.173600	0.366800
C461	C46	0.679600	0.214500	0.321100
C471	C47	0.611400	0.223200	0.267200
C481	C48	0.519600	0.185400	0.262800
C491	C49	0.492600	0.141700	0.309300
C501	C50	0.635200	0.266500	0.212900
C511	C51	0.632200	0.339100	0.224300
C521	C52	0.662500	0.377900	0.177900
C531	C53	0.697000	0.344500	0.115900
C541	C54	0.696200	0.273400	0.099800
C551	C55	0.666800	0.234400	0.148200
C561	C56	0.737400	0.388000	0.065600
C571	C57	0.504600	0.901100	0.391500
C581	C58	0.579500	0.858200	0.349400
C591	C59	0.664300	0.839200	0.381400
C601	C60	0.730600	0.798700	0.341700
C611	C61	0.715200	0.776900	0.269300
C621	C62	0.624000	0.792100	0.237700
C631	C63	0.555800	0.830200	0.278000
C641	C64	0.958100	0.585200	0.908800
C651	C65	0.937500	0.636700	0.861900
C661	C66	0.844400	0.633200	0.826400
C671	C67	0.820400	0.678900	0.785500
C681	C68	0.888600	0.732800	0.776800
C691	C69	0.980400	0.737200	0.814600
C701	C70	0.007400	0.690700	0.858300
C711	C71	0.864800	0.787100	0.733500
C721	C72	0.867800	0.775700	0.660900
C731	C73	0.837500	0.822100	0.622100
C741	C74	0.803000	0.884100	0.655500
C751	C75	0.803800	0.900200	0.726600
C761	C76	0.833200	0.851800	0.765600
C771	C77	0.762600	0.934400	0.612000
C781	C78	0.995400	0.608500	0.098900
C791	C79	0.920500	0.650600	0.141800
C801	C80	0.835700	0.618600	0.160800
C811	C81	0.769400	0.658300	0.201300
C821	C82	0.784800	0.730700	0.223100
C831	C83	0.876000	0.762300	0.207900
C841	C84	0.944200	0.722000	0.169800
N11	N1	0.220500	0.752100	0.671900
N21	N2	0.557300	0.814500	0.795900
N31	N3	0.407100	0.622800	0.710000
N41	N4	0.328400	0.841400	0.870400
N51	N5	0.183700	0.219800	0.622600
N61	N6	0.399700	0.228900	0.836900
N71	N7	0.279500	0.328100	0.247900
N81	N8	0.942700	0.204100	0.185500
N91	N9	0.092900	0.290000	0.377200
N101	N10	0.171600	0.129600	0.158600
N111	N11	0.316300	0.377400	0.780200
N121	N12	0.100300	0.163100	0.771100
N131	N13	0.779500	0.247900	0.328100
N141	N14	0.442700	0.185500	0.204100
N151	N15	0.592900	0.377200	0.290000
N161	N16	0.671600	0.158600	0.129600
N171	N17	0.816300	0.780200	0.377400
N181	N18	0.600300	0.771100	0.163100
N191	N19	0.720500	0.671900	0.752100
N201	N20	0.057300	0.795900	0.814500
N211	N21	0.907100	0.710000	0.622800
N221	N22	0.828400	0.870400	0.841400
N231	N23	0.683700	0.622600	0.219800
N241	N24	0.899700	0.836900	0.228900
O11	O1	0.391600	0.910300	0.538900
O21	O2	0.544500	0.943200	0.597600
O31	O3	0.238800	0.547500	0.909700
O41	O4	0.248800	0.641800	0.995600
O51	O5	0.157100	0.768000	0.633800
O61	O6	0.196200	0.711100	0.706300
O71	O7	0.619200	0.870600	0.814200
O81	O8	0.555400	0.774600	0.830600
O91	O9	0.437600	0.655500	0.668900
O101	O10	0.420400	0.562900	0.706900
O111	O11	0.314500	0.874400	0.824200
O121	O12	0.331700	0.870200	0.934200
O131	O13	0.459700	0.059700	0.550900
O141	O14	0.582200	0.102500	0.632500
O151	O15	0.110000	0.236200	0.649000
O161	O16	0.159000	0.199100	0.560900
O171	O17	0.338200	0.239300	0.877900
O181	O18	0.489900	0.239400	0.856400
O191	O19	0.108400	0.461100	0.089700
O201	O20	0.955500	0.402400	0.056800
O211	O21	0.261200	0.090300	0.452500
O221	O22	0.251200	0.004400	0.358200
O231	O23	0.342900	0.366200	0.232000
O241	O24	0.303800	0.293700	0.288900
O251	O25	0.880800	0.185800	0.129400
O261	O26	0.944600	0.169400	0.225400
O271	O27	0.062400	0.331100	0.344500
O281	O28	0.079600	0.293100	0.437100
O291	O29	0.185500	0.175800	0.125600
O301	O30	0.168300	0.065800	0.129800
O311	O31	0.040300	0.449100	0.940300
O321	O32	0.917800	0.367500	0.897500
O331	O33	0.390000	0.351000	0.763800
O341	O34	0.341000	0.439100	0.800900
O351	O35	0.161800	0.122100	0.760700
O361	O36	0.010100	0.143600	0.760600
O371	O37	0.608400	0.089700	0.461100
O381	O38	0.455500	0.056800	0.402400
O391	O39	0.761200	0.452500	0.090300
O401	O40	0.751200	0.358200	0.004400
O411	O41	0.842900	0.232000	0.366200
O421	O42	0.803800	0.288900	0.293700
O431	O43	0.380800	0.129400	0.185800
O441	O44	0.444600	0.225400	0.169400
O451	O45	0.562400	0.344500	0.331100
O461	O46	0.579600	0.437100	0.293100
O471	O47	0.685500	0.125600	0.175800
O481	O48	0.668300	0.129800	0.065800
O491	O49	0.540300	0.940300	0.449100
O501	O50	0.417800	0.897500	0.367500
O511	O51	0.890000	0.763800	0.351000
O521	O52	0.841000	0.800900	0.439100
O531	O53	0.661800	0.760700	0.122100
O541	O54	0.510100	0.760600	0.143600
O551	O55	0.891600	0.538900	0.910300
O561	O56	0.044500	0.597600	0.943200
O571	O57	0.738800	0.909700	0.547500
O581	O58	0.748800	0.995600	0.641800
O591	O59	0.657100	0.633800	0.768000
O601	O60	0.696200	0.706300	0.711100
O611	O61	0.119200	0.814200	0.870600
O621	O62	0.055400	0.830600	0.774600
O631	O63	0.937600	0.668900	0.655500
O641	O64	0.920400	0.706900	0.562900
O651	O65	0.814500	0.824200	0.874400
O661	O66	0.831700	0.934200	0.870200
O671	O67	0.959700	0.550900	0.059700
O681	O68	0.082200	0.632500	0.102500
O691	O69	0.610000	0.649000	0.236200
O701	O70	0.659000	0.560900	0.199100
O711	O71	0.838200	0.877900	0.239300
O721	O72	0.989900	0.856400	0.239400
