data_XEGKAX_clean_PM
_symmetry_space_group_name_H-M	'P1'
_cell_length_a	13.652000
_cell_length_b	24.698000
_cell_length_c	30.143000
_cell_angle_alpha	90.000000
_cell_angle_beta	90.000000
_cell_angle_gamma	94.935000
_symmetry_Int_Tables_number 1

loop_
_symmetry_equiv_pos_as_xyz
'x,y,z'

loop_
_atom_site_label
_atom_site_type_symbol
_atom_site_fract_x
_atom_site_fract_y
_atom_site_fract_z
Gd11	Gd1	0.357630	0.222220	0.746350
Gd21	Gd2	0.640000	0.277320	0.773670
Gd31	Gd3	0.142370	0.277780	0.246350
Gd41	Gd4	0.860000	0.222680	0.273670
Gd51	Gd5	0.642370	0.777780	0.253650
Gd61	Gd6	0.360000	0.722680	0.226330
Gd71	Gd7	0.857630	0.722220	0.753650
Gd81	Gd8	0.140000	0.777320	0.726330
H11	H1	0.679500	0.141400	0.793500
H21	H2	0.529500	0.065700	0.693800
H31	H3	0.002300	0.953300	0.701300
H41	H4	0.811300	0.858600	0.773800
H51	H5	0.557900	0.283300	0.917200
H61	H6	0.302200	0.197100	0.894000
H71	H7	0.260000	0.331600	0.102900
H81	H8	0.350900	0.188500	0.134800
H91	H9	0.706900	0.294400	0.632300
H101	H10	0.433600	0.239300	0.598900
H111	H11	0.691200	0.321300	0.393200
H121	H12	0.725900	0.164700	0.416900
H131	H13	0.820500	0.358600	0.293500
H141	H14	0.970500	0.434300	0.193800
H151	H15	0.497700	0.546700	0.201300
H161	H16	0.688700	0.641400	0.273800
H171	H17	0.942100	0.216700	0.417200
H181	H18	0.197800	0.302900	0.394000
H191	H19	0.240000	0.168400	0.602900
H201	H20	0.149100	0.311500	0.634800
H211	H21	0.793100	0.205600	0.132300
H221	H22	0.066400	0.260700	0.098900
H231	H23	0.808800	0.178700	0.893200
H241	H24	0.774100	0.335300	0.916900
H251	H25	0.320500	0.858600	0.206500
H261	H26	0.470500	0.934300	0.306200
H271	H27	0.997700	0.046700	0.298700
H281	H28	0.188700	0.141400	0.226200
H291	H29	0.442100	0.716700	0.082800
H301	H30	0.697800	0.802900	0.106000
H311	H31	0.740000	0.668400	0.897100
H321	H32	0.649100	0.811500	0.865200
H331	H33	0.293100	0.705600	0.367700
H341	H34	0.566400	0.760700	0.401100
H351	H35	0.308800	0.678700	0.606800
H361	H36	0.274100	0.835300	0.583100
H371	H37	0.179500	0.641400	0.706500
H381	H38	0.029500	0.565700	0.806200
H391	H39	0.502300	0.453300	0.798700
H401	H40	0.311300	0.358600	0.726200
H411	H41	0.057900	0.783300	0.582800
H421	H42	0.802200	0.697100	0.606000
H431	H43	0.760000	0.831600	0.397100
H441	H44	0.850900	0.688500	0.365200
H451	H45	0.206900	0.794400	0.867700
H461	H46	0.933600	0.739300	0.901100
H471	H47	0.191200	0.821300	0.106800
H481	H48	0.225900	0.664700	0.083100
C11	C1	0.515700	0.150300	0.745000
C21	C2	0.590800	0.109400	0.744300
C31	C3	0.669500	0.112300	0.773900
C41	C4	0.731900	0.071700	0.773800
C51	C5	0.723500	0.027800	0.744300
C61	C6	0.646800	0.028400	0.714200
C71	C7	0.580800	0.067600	0.714200
C81	C8	0.793600	0.983900	0.743700
C91	C9	0.882800	0.989000	0.721200
C101	C10	0.943900	0.948100	0.717200
C111	C11	0.915800	0.897800	0.737900
C121	C12	0.830500	0.891700	0.760500
C131	C13	0.770700	0.934200	0.764200
C141	C14	0.982200	0.852300	0.733000
C151	C15	0.454900	0.241600	0.848400
C161	C16	0.433300	0.240100	0.897800
C171	C17	0.498900	0.266100	0.927500
C181	C18	0.477700	0.266800	0.971700
C191	C19	0.390500	0.240300	0.989500
C201	C20	0.329200	0.213900	0.958400
C211	C21	0.347600	0.214300	0.913500
C221	C22	0.361200	0.247600	0.037200
C231	C23	0.315800	0.292300	0.051400
C241	C24	0.287000	0.299700	0.094800
C251	C25	0.298100	0.260600	0.125300
C261	C26	0.342200	0.215200	0.113700
C271	C27	0.374100	0.208900	0.070500
C281	C28	0.259700	0.268400	0.171700
C291	C29	0.535600	0.264500	0.671000
C301	C30	0.566300	0.266200	0.622400
C311	C31	0.661500	0.281800	0.610900
C321	C32	0.689200	0.278600	0.567000
C331	C33	0.624100	0.261200	0.533600
C341	C34	0.528800	0.246900	0.547600
C351	C35	0.498600	0.249200	0.591100
C361	C36	0.654300	0.255400	0.486100
C371	C37	0.653800	0.296400	0.455300
C381	C38	0.686800	0.291500	0.412200
C391	C39	0.713300	0.241600	0.397700
C401	C40	0.709400	0.198500	0.426500
C411	C41	0.680800	0.205600	0.470000
C421	C42	0.752500	0.235400	0.351400
C431	C43	0.984300	0.349700	0.245000
C441	C44	0.909200	0.390600	0.244300
C451	C45	0.830500	0.387700	0.273900
C461	C46	0.768100	0.428300	0.273800
C471	C47	0.776500	0.472200	0.244300
C481	C48	0.853200	0.471600	0.214200
C491	C49	0.919200	0.432400	0.214200
C501	C50	0.706400	0.516100	0.243700
C511	C51	0.617200	0.511000	0.221200
C521	C52	0.556100	0.551900	0.217200
C531	C53	0.584200	0.602200	0.237900
C541	C54	0.669500	0.608300	0.260500
C551	C55	0.729300	0.565800	0.264200
C561	C56	0.517800	0.647700	0.233000
C571	C57	0.045100	0.258400	0.348400
C581	C58	0.066700	0.259900	0.397800
C591	C59	0.001100	0.233900	0.427500
C601	C60	0.022300	0.233200	0.471700
C611	C61	0.109500	0.259700	0.489500
C621	C62	0.170800	0.286100	0.458400
C631	C63	0.152400	0.285700	0.413500
C641	C64	0.138800	0.252400	0.537200
C651	C65	0.184200	0.207700	0.551400
C661	C66	0.213000	0.200300	0.594800
C671	C67	0.201900	0.239400	0.625300
C681	C68	0.157800	0.284800	0.613700
C691	C69	0.125900	0.291100	0.570500
C701	C70	0.240300	0.231600	0.671700
C711	C71	0.964400	0.235500	0.171000
C721	C72	0.933700	0.233800	0.122400
C731	C73	0.838500	0.218200	0.110900
C741	C74	0.810800	0.221400	0.067000
C751	C75	0.875900	0.238800	0.033600
C761	C76	0.971200	0.253100	0.047600
C771	C77	0.001400	0.250800	0.091100
C781	C78	0.845700	0.244600	0.986100
C791	C79	0.846200	0.203600	0.955300
C801	C80	0.813200	0.208500	0.912200
C811	C81	0.786700	0.258400	0.897700
C821	C82	0.790600	0.301500	0.926500
C831	C83	0.819200	0.294400	0.970000
C841	C84	0.747500	0.264600	0.851400
C851	C85	0.484300	0.849700	0.255000
C861	C86	0.409200	0.890600	0.255700
C871	C87	0.330500	0.887700	0.226100
C881	C88	0.268100	0.928300	0.226200
C891	C89	0.276500	0.972200	0.255700
C901	C90	0.353200	0.971600	0.285800
C911	C91	0.419200	0.932400	0.285800
C921	C92	0.206400	0.016100	0.256300
C931	C93	0.117200	0.011000	0.278800
C941	C94	0.056100	0.051900	0.282800
C951	C95	0.084200	0.102200	0.262100
C961	C96	0.169500	0.108300	0.239500
C971	C97	0.229300	0.065800	0.235800
C981	C98	0.017800	0.147700	0.267000
C991	C99	0.545100	0.758400	0.151600
C1001	C100	0.566700	0.759900	0.102200
C1011	C101	0.501100	0.733900	0.072500
C1021	C102	0.522300	0.733200	0.028300
C1031	C103	0.609500	0.759700	0.010500
C1041	C104	0.670800	0.786100	0.041600
C1051	C105	0.652400	0.785700	0.086500
C1061	C106	0.638800	0.752400	0.962800
C1071	C107	0.684200	0.707700	0.948600
C1081	C108	0.713000	0.700300	0.905200
C1091	C109	0.701900	0.739400	0.874700
C1101	C110	0.657800	0.784800	0.886300
C1111	C111	0.625900	0.791100	0.929500
C1121	C112	0.740300	0.731600	0.828300
C1131	C113	0.464400	0.735500	0.329000
C1141	C114	0.433700	0.733800	0.377600
C1151	C115	0.338500	0.718200	0.389100
C1161	C116	0.310800	0.721400	0.433000
C1171	C117	0.375900	0.738800	0.466400
C1181	C118	0.471200	0.753100	0.452400
C1191	C119	0.501400	0.750800	0.408900
C1201	C120	0.345700	0.744600	0.513900
C1211	C121	0.346200	0.703600	0.544700
C1221	C122	0.313200	0.708500	0.587800
C1231	C123	0.286700	0.758400	0.602300
C1241	C124	0.290600	0.801500	0.573500
C1251	C125	0.319200	0.794400	0.530000
C1261	C126	0.247500	0.764600	0.648600
C1271	C127	0.015700	0.650300	0.755000
C1281	C128	0.090800	0.609400	0.755700
C1291	C129	0.169500	0.612300	0.726100
C1301	C130	0.231900	0.571700	0.726200
C1311	C131	0.223500	0.527800	0.755700
C1321	C132	0.146800	0.528400	0.785800
C1331	C133	0.080800	0.567600	0.785800
C1341	C134	0.293600	0.483900	0.756300
C1351	C135	0.382800	0.489000	0.778800
C1361	C136	0.443900	0.448100	0.782800
C1371	C137	0.415800	0.397800	0.762100
C1381	C138	0.330500	0.391700	0.739500
C1391	C139	0.270700	0.434200	0.735800
C1401	C140	0.482200	0.352300	0.767000
C1411	C141	0.954900	0.741600	0.651600
C1421	C142	0.933300	0.740100	0.602200
C1431	C143	0.998900	0.766100	0.572500
C1441	C144	0.977700	0.766800	0.528300
C1451	C145	0.890500	0.740300	0.510500
C1461	C146	0.829200	0.713900	0.541600
C1471	C147	0.847600	0.714300	0.586500
C1481	C148	0.861200	0.747600	0.462800
C1491	C149	0.815800	0.792300	0.448600
C1501	C150	0.787000	0.799700	0.405200
C1511	C151	0.798100	0.760600	0.374700
C1521	C152	0.842200	0.715200	0.386300
C1531	C153	0.874100	0.708900	0.429500
C1541	C154	0.759700	0.768400	0.328300
C1551	C155	0.035600	0.764500	0.829000
C1561	C156	0.066300	0.766200	0.877600
C1571	C157	0.161500	0.781800	0.889100
C1581	C158	0.189200	0.778600	0.933000
C1591	C159	0.124100	0.761200	0.966400
C1601	C160	0.028800	0.746900	0.952400
C1611	C161	0.998600	0.749200	0.908900
C1621	C162	0.154300	0.755400	0.013900
C1631	C163	0.153800	0.796400	0.044700
C1641	C164	0.186800	0.791500	0.087800
C1651	C165	0.213300	0.741600	0.102300
C1661	C166	0.209400	0.698500	0.073500
C1671	C167	0.180800	0.705600	0.030000
C1681	C168	0.252500	0.735400	0.148600
N11	N1	0.810300	0.074800	0.807700
N21	N2	0.629400	0.986000	0.679900
N31	N3	0.918000	0.041100	0.699300
N41	N4	0.680400	0.925400	0.790000
N51	N5	0.548800	0.296000	0.001600
N61	N6	0.235700	0.183200	0.972100
N71	N7	0.295200	0.336400	0.020100
N81	N8	0.422900	0.159500	0.060000
N91	N9	0.795600	0.292700	0.556800
N101	N10	0.453100	0.226800	0.515800
N111	N11	0.621300	0.349600	0.466900
N121	N12	0.681900	0.157600	0.499400
N131	N13	0.689700	0.425200	0.307700
N141	N14	0.870600	0.514000	0.179900
N151	N15	0.582000	0.458900	0.199300
N161	N16	0.819600	0.574600	0.290000
N171	N17	0.951200	0.204000	0.501600
N181	N18	0.264300	0.316800	0.472100
N191	N19	0.204800	0.163600	0.520100
N201	N20	0.077100	0.340500	0.560000
N211	N21	0.704400	0.207300	0.056800
N221	N22	0.046900	0.273200	0.015800
N231	N23	0.878700	0.150400	0.966900
N241	N24	0.818100	0.342400	0.999400
N251	N25	0.189700	0.925200	0.192300
N261	N26	0.370600	0.014000	0.320100
N271	N27	0.082000	0.958900	0.300700
N281	N28	0.319600	0.074600	0.210000
N291	N29	0.451200	0.704000	0.998400
N301	N30	0.764300	0.816800	0.027900
N311	N31	0.704800	0.663600	0.979900
N321	N32	0.577100	0.840500	0.940000
N331	N33	0.204400	0.707300	0.443200
N341	N34	0.546900	0.773200	0.484200
N351	N35	0.378700	0.650400	0.533100
N361	N36	0.318100	0.842400	0.500600
N371	N37	0.310300	0.574800	0.692300
N381	N38	0.129400	0.486000	0.820100
N391	N39	0.418000	0.541100	0.800700
N401	N40	0.180400	0.425400	0.710000
N411	N41	0.048800	0.796000	0.498400
N421	N42	0.735700	0.683200	0.527900
N431	N43	0.795200	0.836400	0.479900
N441	N44	0.922900	0.659500	0.440000
N451	N45	0.295600	0.792700	0.943200
N461	N46	0.953100	0.726800	0.984200
N471	N47	0.121300	0.849600	0.033100
N481	N48	0.181900	0.657600	0.000600
O11	O1	0.432000	0.137800	0.729900
O21	O2	0.538900	0.196300	0.761200
O31	O3	0.069400	0.863800	0.720800
O41	O4	0.946800	0.805300	0.742000
O51	O5	0.828300	0.115200	0.826000
O61	O6	0.851600	0.037300	0.815600
O71	O7	0.579900	0.994200	0.649200
O81	O8	0.655900	0.942300	0.686400
O91	O9	0.888200	0.082600	0.711400
O101	O10	0.980100	0.040700	0.671600
O111	O11	0.637200	0.959900	0.801600
O121	O12	0.647200	0.879300	0.795900
O131	O13	0.390700	0.219200	0.823900
O141	O14	0.536400	0.267000	0.837200
O151	O15	0.244000	0.226900	0.195500
O161	O16	0.242200	0.314700	0.183500
O171	O17	0.614000	0.325500	0.984000
O181	O18	0.540600	0.290500	0.041400
O191	O19	0.169100	0.177500	0.945800
O201	O20	0.235000	0.161000	0.009400
O211	O21	0.326200	0.338200	0.984300
O221	O22	0.238800	0.367600	0.031800
O231	O23	0.455400	0.152600	0.023200
O241	O24	0.433000	0.126700	0.089400
O251	O25	0.454000	0.243300	0.680800
O261	O26	0.600600	0.283600	0.698600
O271	O27	0.759500	0.187700	0.336800
O281	O28	0.778000	0.277300	0.329000
O291	O29	0.819700	0.297000	0.517700
O301	O30	0.852900	0.297100	0.588100
O311	O31	0.469000	0.204000	0.485200
O321	O32	0.372600	0.247300	0.519500
O331	O33	0.649900	0.388100	0.445700
O341	O34	0.567600	0.351700	0.498600
O351	O35	0.674800	0.114000	0.482200
O361	O36	0.694600	0.165300	0.539100
O371	O37	0.068000	0.362200	0.229900
O381	O38	0.961100	0.303700	0.261200
O391	O39	0.430600	0.636200	0.220800
O401	O40	0.553200	0.694700	0.242000
O411	O41	0.671700	0.384800	0.326000
O421	O42	0.648400	0.462700	0.315600
O431	O43	0.920100	0.505800	0.149200
O441	O44	0.844100	0.557700	0.186400
O451	O45	0.611800	0.417400	0.211400
O461	O46	0.519900	0.459300	0.171600
O471	O47	0.862800	0.540100	0.301600
O481	O48	0.852800	0.620700	0.295900
O491	O49	0.109300	0.280800	0.323900
O501	O50	0.963600	0.233000	0.337200
O511	O51	0.256000	0.273100	0.695500
O521	O52	0.257800	0.185300	0.683500
O531	O53	0.886000	0.174500	0.484000
O541	O54	0.959400	0.209500	0.541400
O551	O55	0.330900	0.322500	0.445800
O561	O56	0.265000	0.339000	0.509400
O571	O57	0.173800	0.161800	0.484300
O581	O58	0.261200	0.132400	0.531800
O591	O59	0.044600	0.347400	0.523200
O601	O60	0.067000	0.373300	0.589400
O611	O61	0.046000	0.256700	0.180800
O621	O62	0.899400	0.216400	0.198600
O631	O63	0.740500	0.312300	0.836800
O641	O64	0.722000	0.222700	0.829000
O651	O65	0.680300	0.203000	0.017700
O661	O66	0.647100	0.202900	0.088100
O671	O67	0.031000	0.296000	0.985200
O681	O68	0.127400	0.252700	0.019500
O691	O69	0.850100	0.111900	0.945700
O701	O70	0.932400	0.148300	0.998600
O711	O71	0.825200	0.386000	0.982200
O721	O72	0.805400	0.334700	0.039100
O731	O73	0.568000	0.862200	0.270100
O741	O74	0.461100	0.803700	0.238800
O751	O75	0.930600	0.136200	0.279200
O761	O76	0.053200	0.194700	0.258000
O771	O77	0.171700	0.884800	0.174000
O781	O78	0.148400	0.962700	0.184400
O791	O79	0.420100	0.005800	0.350800
O801	O80	0.344100	0.057700	0.313600
O811	O81	0.111800	0.917400	0.288600
O821	O82	0.019900	0.959300	0.328400
O831	O83	0.362800	0.040100	0.198400
O841	O84	0.352800	0.120700	0.204100
O851	O85	0.609300	0.780800	0.176100
O861	O86	0.463600	0.733000	0.162800
O871	O87	0.756000	0.773100	0.804500
O881	O88	0.757800	0.685300	0.816500
O891	O89	0.386000	0.674500	0.016000
O901	O90	0.459400	0.709500	0.958600
O911	O91	0.830900	0.822500	0.054200
O921	O92	0.765000	0.839000	0.990600
O931	O93	0.673800	0.661800	0.015700
O941	O94	0.761200	0.632400	0.968200
O951	O95	0.544600	0.847400	0.976800
O961	O96	0.567000	0.873300	0.910600
O971	O97	0.546000	0.756700	0.319200
O981	O98	0.399400	0.716400	0.301400
O991	O99	0.240500	0.812300	0.663200
O1001	O100	0.222000	0.722700	0.671000
O1011	O101	0.180300	0.703000	0.482300
O1021	O102	0.147100	0.702900	0.411900
O1031	O103	0.531000	0.796000	0.514800
O1041	O104	0.627400	0.752700	0.480500
O1051	O105	0.350100	0.611900	0.554300
O1061	O106	0.432400	0.648300	0.501400
O1071	O107	0.325200	0.886000	0.517800
O1081	O108	0.305400	0.834700	0.460900
O1091	O109	0.932000	0.637800	0.770100
O1101	O110	0.038900	0.696300	0.738800
O1111	O111	0.569400	0.363800	0.779200
O1121	O112	0.446800	0.305300	0.758000
O1131	O113	0.328300	0.615200	0.674000
O1141	O114	0.351600	0.537300	0.684400
O1151	O115	0.079900	0.494200	0.850800
O1161	O116	0.155900	0.442300	0.813600
O1171	O117	0.388200	0.582600	0.788600
O1181	O118	0.480100	0.540700	0.828400
O1191	O119	0.137200	0.459900	0.698400
O1201	O120	0.147200	0.379300	0.704100
O1211	O121	0.890700	0.719200	0.676100
O1221	O122	0.036400	0.767000	0.662800
O1231	O123	0.744000	0.726900	0.304500
O1241	O124	0.742200	0.814700	0.316500
O1251	O125	0.114000	0.825500	0.516000
O1261	O126	0.040600	0.790500	0.458600
O1271	O127	0.669100	0.677500	0.554200
O1281	O128	0.735000	0.661000	0.490600
O1291	O129	0.826200	0.838200	0.515700
O1301	O130	0.738800	0.867600	0.468200
O1311	O131	0.955400	0.652600	0.476800
O1321	O132	0.933000	0.626700	0.410600
O1331	O133	0.954000	0.743300	0.819200
O1341	O134	0.100600	0.783600	0.801400
O1351	O135	0.259500	0.687700	0.163200
O1361	O136	0.278000	0.777300	0.171000
O1371	O137	0.319700	0.797000	0.982300
O1381	O138	0.352900	0.797100	0.911900
O1391	O139	0.969000	0.704000	0.014800
O1401	O140	0.872600	0.747300	0.980500
O1411	O141	0.149900	0.888100	0.054300
O1421	O142	0.067600	0.851700	0.001400
O1431	O143	0.174800	0.614000	0.017800
O1441	O144	0.194600	0.665300	0.960900
