data_XEHRUY_clean_PM
_symmetry_space_group_name_H-M	'P1'
_cell_length_a	11.380500
_cell_length_b	9.840600
_cell_length_c	14.505700
_cell_angle_alpha	90.000000
_cell_angle_beta	91.429000
_cell_angle_gamma	90.000000
_symmetry_Int_Tables_number 1

loop_
_symmetry_equiv_pos_as_xyz
'x,y,z'

loop_
_atom_site_label
_atom_site_type_symbol
_atom_site_fract_x
_atom_site_fract_y
_atom_site_fract_z
Mg11	Mg1	0.256470	0.419050	0.634370
Mg21	Mg2	0.239290	0.609220	0.810600
O11	O1	0.131090	0.503750	0.719820
O21	O2	0.963100	0.501720	0.637880
O31	O3	0.157220	0.241870	0.610460
O41	O4	0.018370	0.292290	0.503960
O51	O5	0.399860	0.347260	0.563330
O61	O6	0.390080	0.125110	0.597080
O71	O7	0.307480	0.297320	0.746870
O81	O8	0.312860	0.440120	0.867410
O91	O9	0.182770	0.523890	0.524660
O101	O10	0.349810	0.601950	0.465890
O111	O11	0.348290	0.579420	0.696610
O121	O12	0.514280	0.610490	0.619690
C11	C1	0.020530	0.516460	0.710690
H11	H1	0.979200	0.538700	0.763100
C21	C2	0.076630	0.211140	0.551380
H21	H2	0.060200	0.119300	0.543200
C31	C3	0.433390	0.223550	0.557050
H31	H3	0.496100	0.206000	0.518900
C41	C4	0.328760	0.327430	0.831250
H41	H4	0.358900	0.258800	0.869000
C51	C5	0.241740	0.597880	0.469700
H51	H5	0.199300	0.653400	0.429100
C61	C6	0.448220	0.634350	0.683840
H61	H6	0.473600	0.698500	0.727000
Mg31	Mg3	0.243530	0.919050	0.865630
Mg41	Mg4	0.260710	0.109220	0.689400
O131	O13	0.368910	0.003750	0.780180
O141	O14	0.536900	0.001720	0.862120
O151	O15	0.342780	0.741870	0.889540
O161	O16	0.481630	0.792290	0.996040
O171	O17	0.100140	0.847260	0.936670
O181	O18	0.109920	0.625110	0.902920
O191	O19	0.192520	0.797320	0.753130
O201	O20	0.187140	0.940120	0.632590
O211	O21	0.317230	0.023890	0.975340
O221	O22	0.150190	0.101950	0.034110
O231	O23	0.151710	0.079420	0.803390
O241	O24	0.985720	0.110490	0.880310
C71	C7	0.479470	0.016460	0.789310
H71	H7	0.520800	0.038700	0.736900
C81	C8	0.423370	0.711140	0.948620
H81	H8	0.439800	0.619300	0.956800
C91	C9	0.066610	0.723550	0.942950
H91	H9	0.003900	0.706000	0.981100
C101	C10	0.171240	0.827430	0.668750
H101	H10	0.141100	0.758800	0.631000
C111	C11	0.258260	0.097880	0.030300
H111	H11	0.300700	0.153400	0.070900
C121	C12	0.051780	0.134350	0.816160
H121	H12	0.026400	0.198500	0.773000
Mg51	Mg5	0.743530	0.580950	0.365630
Mg61	Mg6	0.760710	0.390780	0.189400
O251	O25	0.868910	0.496250	0.280180
O261	O26	0.036900	0.498280	0.362120
O271	O27	0.842780	0.758130	0.389540
O281	O28	0.981630	0.707710	0.496040
O291	O29	0.600140	0.652740	0.436670
O301	O30	0.609920	0.874890	0.402920
O311	O31	0.692520	0.702680	0.253130
O321	O32	0.687140	0.559880	0.132590
O331	O33	0.817230	0.476110	0.475340
O341	O34	0.650190	0.398050	0.534110
O351	O35	0.651710	0.420580	0.303390
O361	O36	0.485720	0.389510	0.380310
C131	C13	0.979470	0.483540	0.289310
H131	H13	0.020800	0.461300	0.236900
C141	C14	0.923370	0.788860	0.448620
H141	H14	0.939800	0.880700	0.456800
C151	C15	0.566610	0.776450	0.442950
H151	H15	0.503900	0.794000	0.481100
C161	C16	0.671240	0.672570	0.168750
H161	H16	0.641100	0.741200	0.131000
C171	C17	0.758260	0.402120	0.530300
H171	H17	0.800700	0.346600	0.570900
C181	C18	0.551780	0.365650	0.316160
H181	H18	0.526400	0.301500	0.273000
Mg71	Mg7	0.756470	0.080950	0.134370
Mg81	Mg8	0.739290	0.890780	0.310600
O371	O37	0.631090	0.996250	0.219820
O381	O38	0.463100	0.998280	0.137880
O391	O39	0.657220	0.258130	0.110460
O401	O40	0.518370	0.207710	0.003960
O411	O41	0.899860	0.152740	0.063330
O421	O42	0.890080	0.374890	0.097080
O431	O43	0.807480	0.202680	0.246870
O441	O44	0.812860	0.059880	0.367410
O451	O45	0.682770	0.976110	0.024660
O461	O46	0.849810	0.898050	0.965890
O471	O47	0.848290	0.920580	0.196610
O481	O48	0.014280	0.889510	0.119690
C191	C19	0.520530	0.983540	0.210690
H191	H19	0.479200	0.961300	0.263100
C201	C20	0.576630	0.288860	0.051380
H201	H20	0.560200	0.380700	0.043200
C211	C21	0.933390	0.276450	0.057050
H211	H21	0.996100	0.294000	0.018900
C221	C22	0.828760	0.172570	0.331250
H221	H22	0.858900	0.241200	0.369000
C231	C23	0.741740	0.902120	0.969700
H231	H23	0.699300	0.846600	0.929100
C241	C24	0.948220	0.865650	0.183840
H241	H24	0.973600	0.801500	0.227000
Mg91	Mg9	0.000000	0.500000	0.500000
Mg101	Mg10	0.500000	0.000000	0.000000
Mg111	Mg11	0.500000	0.500000	0.500000
Mg121	Mg12	0.000000	0.000000	0.000000
