data_XEHSOT_clean_PM
_symmetry_space_group_name_H-M	'P1'
_cell_length_a	9.817900
_cell_length_b	11.288800
_cell_length_c	14.546500
_cell_angle_alpha	91.622000
_cell_angle_beta	90.000000
_cell_angle_gamma	90.000000
_symmetry_Int_Tables_number 1

loop_
_symmetry_equiv_pos_as_xyz
'x,y,z'

loop_
_atom_site_label
_atom_site_type_symbol
_atom_site_fract_x
_atom_site_fract_y
_atom_site_fract_z
Mg11	Mg1	0.581270	0.743890	0.365030
Mg21	Mg2	0.391200	0.760390	0.189580
Mg31	Mg3	0.081270	0.756110	0.134970
Mg41	Mg4	0.891200	0.739610	0.310420
Mg51	Mg5	0.418730	0.256110	0.634970
Mg61	Mg6	0.608800	0.239610	0.810420
Mg71	Mg7	0.918730	0.243890	0.865030
Mg81	Mg8	0.108800	0.260390	0.689580
Mg91	Mg9	0.500000	0.000000	0.500000
Mg101	Mg10	0.000000	0.500000	0.000000
Mg111	Mg11	0.500000	0.500000	0.500000
Mg121	Mg12	0.000000	0.000000	0.000000
H11	H1	0.463900	0.024500	0.236300
H21	H2	0.882500	0.945400	0.454300
H31	H3	0.796300	0.507600	0.486600
H41	H4	0.742100	0.632500	0.132500
H51	H5	0.340800	0.804100	0.569000
H61	H6	0.307400	0.520000	0.269000
H71	H7	0.963900	0.475500	0.263700
H81	H8	0.382500	0.554600	0.045700
H91	H9	0.296300	0.992400	0.013400
H101	H10	0.242100	0.867500	0.367500
H111	H11	0.840800	0.695900	0.931000
H121	H12	0.807400	0.980000	0.231000
H131	H13	0.536100	0.975500	0.763700
H141	H14	0.117500	0.054600	0.545700
H151	H15	0.203700	0.492400	0.513400
H161	H16	0.257900	0.367500	0.867500
H171	H17	0.659200	0.195900	0.431000
H181	H18	0.692600	0.480000	0.731000
H191	H19	0.036100	0.524500	0.736300
H201	H20	0.617500	0.445400	0.954300
H211	H21	0.703700	0.007600	0.986600
H221	H22	0.757900	0.132500	0.632500
H231	H23	0.159200	0.304100	0.069000
H241	H24	0.192600	0.020000	0.769000
C11	C1	0.485100	0.981300	0.289540
C21	C2	0.788900	0.925800	0.447590
C31	C3	0.777800	0.569500	0.445590
C41	C4	0.672900	0.667200	0.170160
C51	C5	0.398800	0.758700	0.529390
C61	C6	0.369400	0.548600	0.314520
C71	C7	0.985100	0.518700	0.210460
C81	C8	0.288900	0.574200	0.052410
C91	C9	0.277800	0.930500	0.054410
C101	C10	0.172900	0.832800	0.329840
C111	C11	0.898800	0.741300	0.970610
C121	C12	0.869400	0.951400	0.185480
C131	C13	0.514900	0.018700	0.710460
C141	C14	0.211100	0.074200	0.552410
C151	C15	0.222200	0.430500	0.554410
C161	C16	0.327100	0.332800	0.829840
C171	C17	0.601200	0.241300	0.470610
C181	C18	0.630600	0.451400	0.685480
C191	C19	0.014900	0.481300	0.789540
C201	C20	0.711100	0.425800	0.947590
C211	C21	0.722200	0.069500	0.945590
C221	C22	0.827100	0.167200	0.670160
C231	C23	0.101200	0.258700	0.029390
C241	C24	0.130600	0.048600	0.814520
O11	O1	0.496960	0.869670	0.279610
O21	O2	0.498900	0.038330	0.362430
O31	O3	0.758460	0.843920	0.388750
O41	O4	0.706900	0.981720	0.496470
O51	O5	0.653410	0.601220	0.437750
O61	O6	0.876340	0.611740	0.404920
O71	O7	0.703210	0.690430	0.253700
O81	O8	0.561110	0.685650	0.133270
O91	O9	0.474160	0.815790	0.474200
O101	O10	0.394700	0.650100	0.535930
O111	O11	0.420000	0.650510	0.303220
O121	O12	0.393100	0.482970	0.378950
O131	O13	0.996960	0.630330	0.220390
O141	O14	0.998900	0.461670	0.137570
O151	O15	0.258460	0.656080	0.111250
O161	O16	0.206900	0.518280	0.003530
O171	O17	0.153410	0.898780	0.062250
O181	O18	0.376340	0.888260	0.095080
O191	O19	0.203210	0.809570	0.246300
O201	O20	0.061110	0.814350	0.366730
O211	O21	0.974160	0.684210	0.025800
O221	O22	0.894700	0.849900	0.964070
O231	O23	0.920000	0.849490	0.196780
O241	O24	0.893100	0.017030	0.121050
O251	O25	0.503040	0.130330	0.720390
O261	O26	0.501100	0.961670	0.637570
O271	O27	0.241540	0.156080	0.611250
O281	O28	0.293100	0.018280	0.503530
O291	O29	0.346590	0.398780	0.562250
O301	O30	0.123660	0.388260	0.595080
O311	O31	0.296790	0.309570	0.746300
O321	O32	0.438890	0.314350	0.866730
O331	O33	0.525840	0.184210	0.525800
O341	O34	0.605300	0.349900	0.464070
O351	O35	0.580000	0.349490	0.696780
O361	O36	0.606900	0.517030	0.621050
O371	O37	0.003040	0.369670	0.779610
O381	O38	0.001100	0.538330	0.862430
O391	O39	0.741540	0.343920	0.888750
O401	O40	0.793100	0.481720	0.996470
O411	O41	0.846590	0.101220	0.937750
O421	O42	0.623660	0.111740	0.904920
O431	O43	0.796790	0.190430	0.753700
O441	O44	0.938890	0.185650	0.633270
O451	O45	0.025840	0.315790	0.974200
O461	O46	0.105300	0.150100	0.035930
O471	O47	0.080000	0.150510	0.803220
O481	O48	0.106900	0.982970	0.878950
