data_XEHTUB_clean_PM
_symmetry_space_group_name_H-M	'P1'
_cell_length_a	6.804000
_cell_length_b	10.347000
_cell_length_c	11.498000
_cell_angle_alpha	68.145000
_cell_angle_beta	77.492000
_cell_angle_gamma	73.837000
_symmetry_Int_Tables_number 1

loop_
_symmetry_equiv_pos_as_xyz
'x,y,z'

loop_
_atom_site_label
_atom_site_type_symbol
_atom_site_fract_x
_atom_site_fract_y
_atom_site_fract_z
Cd11	Cd1	0.890000	0.577190	0.629640
Cd21	Cd2	0.637990	0.321230	0.922370
Cd31	Cd3	0.110000	0.422810	0.370360
Cd41	Cd4	0.362010	0.678770	0.077630
H11	H1	0.329100	0.945000	0.672700
H21	H2	0.198800	0.956100	0.343500
H31	H3	0.403600	0.580000	0.604100
H41	H4	0.192000	0.195000	0.144000
H51	H5	0.987000	0.206000	0.140000
H61	H6	0.670900	0.055000	0.327300
H71	H7	0.801200	0.043900	0.656500
H81	H8	0.596400	0.420000	0.395900
H91	H9	0.808000	0.805000	0.856000
H101	H10	0.013000	0.794000	0.860000
C11	C1	0.375400	0.749900	0.657200
C21	C2	0.321100	0.898200	0.619300
C31	C3	0.255000	0.976400	0.501400
C41	C4	0.240500	0.904600	0.423000
C51	C5	0.288400	0.756200	0.463800
C61	C6	0.362700	0.678900	0.579400
C71	C7	0.455000	0.667700	0.783300
C81	C8	0.201200	0.136800	0.456000
C91	C9	0.248900	0.677900	0.387000
C101	C10	0.123000	0.290200	0.981200
C111	C11	0.624600	0.250100	0.342800
C121	C12	0.678900	0.101800	0.380700
C131	C13	0.745000	0.023600	0.498600
C141	C14	0.759500	0.095400	0.577000
C151	C15	0.711600	0.243800	0.536200
C161	C16	0.637300	0.321100	0.420600
C171	C17	0.545000	0.332300	0.216700
C181	C18	0.798800	0.863200	0.544000
C191	C19	0.751100	0.322100	0.613000
C201	C20	0.877000	0.709800	0.018800
N11	N1	0.973700	0.343400	0.906000
N21	N2	0.056200	0.429300	0.798600
N31	N3	0.243900	0.431100	0.806200
N41	N4	0.294400	0.342000	0.921300
N51	N5	0.108800	0.190700	0.099400
N61	N6	0.026300	0.656600	0.094000
N71	N7	0.943800	0.570700	0.201400
N81	N8	0.756100	0.568900	0.193800
N91	N9	0.705600	0.658000	0.078700
N101	N10	0.891200	0.809300	0.900600
O11	O1	0.601900	0.557600	0.791000
O21	O2	0.365700	0.711500	0.872700
O31	O3	0.203200	0.200800	0.530200
O41	O4	0.159000	0.203300	0.346500
O51	O5	0.287300	0.722500	0.271600
O61	O6	0.179400	0.565000	0.453200
O71	O7	0.398100	0.442400	0.209000
O81	O8	0.634300	0.288500	0.127300
O91	O9	0.796800	0.799200	0.469800
O101	O10	0.841000	0.796700	0.653500
O111	O11	0.712700	0.277500	0.728400
O121	O12	0.820600	0.435000	0.546800
