data_XEJJIG_clean_PM
_symmetry_space_group_name_H-M	'P1'
_cell_length_a	7.707000
_cell_length_b	9.686000
_cell_length_c	10.570000
_cell_angle_alpha	106.650000
_cell_angle_beta	105.252000
_cell_angle_gamma	100.689000
_symmetry_Int_Tables_number 1

loop_
_symmetry_equiv_pos_as_xyz
'x,y,z'

loop_
_atom_site_label
_atom_site_type_symbol
_atom_site_fract_x
_atom_site_fract_y
_atom_site_fract_z
Gd11	Gd1	0.753270	0.968170	0.549170
Gd21	Gd2	0.246730	0.031830	0.450830
H11	H1	0.187100	0.508800	0.035900
H21	H2	0.465300	0.197800	0.950400
H31	H3	0.452200	0.376200	0.344400
H41	H4	0.154700	0.601100	0.261700
H51	H5	0.224600	0.527200	0.376100
H61	H6	0.362700	0.319400	0.784000
H71	H7	0.235300	0.430000	0.810400
H81	H8	0.635100	0.125200	0.121900
H91	H9	0.735400	0.265300	0.265000
H101	H10	0.812900	0.491200	0.964100
H111	H11	0.534700	0.802200	0.049600
H121	H12	0.547800	0.623800	0.655600
H131	H13	0.845300	0.398900	0.738300
H141	H14	0.775400	0.472800	0.623900
H151	H15	0.637300	0.680600	0.216000
H161	H16	0.764700	0.570000	0.189600
H171	H17	0.364900	0.874800	0.878100
H181	H18	0.264600	0.734700	0.735000
C11	C1	0.310000	0.458900	0.206400
C21	C2	0.259900	0.447800	0.066100
C31	C3	0.313700	0.350100	0.969900
C41	C4	0.425200	0.263300	0.015200
C51	C5	0.477800	0.272000	0.154200
C61	C6	0.418000	0.370500	0.249500
C71	C7	0.262500	0.572500	0.311200
C81	C8	0.427100	0.712700	0.395200
C91	C9	0.257500	0.334900	0.818300
C101	C10	0.086700	0.209300	0.726500
C111	C11	0.614100	0.190100	0.204400
C121	C12	0.555600	0.092500	0.286000
C131	C13	0.690000	0.541100	0.793600
C141	C14	0.740100	0.552200	0.933900
C151	C15	0.686300	0.649900	0.030100
C161	C16	0.574800	0.736700	0.984800
C171	C17	0.522200	0.728000	0.845800
C181	C18	0.582000	0.629500	0.750500
C191	C19	0.737500	0.427500	0.688800
C201	C20	0.572900	0.287300	0.604800
C211	C21	0.742500	0.665100	0.181700
C221	C22	0.913300	0.790700	0.273500
C231	C23	0.385900	0.809900	0.795600
C241	C24	0.444400	0.907500	0.714000
O11	O1	0.403300	0.843000	0.415800
O21	O2	0.588100	0.701200	0.444300
O31	O3	0.066700	0.139400	0.596700
O41	O4	0.958100	0.171300	0.772600
O51	O5	0.394400	0.066700	0.289000
O61	O6	0.685400	0.040300	0.342800
O71	O7	0.596700	0.157000	0.584200
O81	O8	0.411900	0.298800	0.555700
O91	O9	0.933300	0.860600	0.403300
O101	O10	0.041900	0.828700	0.227400
O111	O11	0.605600	0.933300	0.711000
O121	O12	0.314600	0.959700	0.657200
