data_XEKCAT01_clean_PM
_symmetry_space_group_name_H-M	'P1'
_cell_length_a	11.961000
_cell_length_b	17.566000
_cell_length_c	18.514000
_cell_angle_alpha	116.650000
_cell_angle_beta	90.000000
_cell_angle_gamma	90.000000
_symmetry_Int_Tables_number 1

loop_
_symmetry_equiv_pos_as_xyz
'x,y,z'

loop_
_atom_site_label
_atom_site_type_symbol
_atom_site_fract_x
_atom_site_fract_y
_atom_site_fract_z
Mg11	Mg1	0.581480	0.712760	0.972540
Mg21	Mg2	0.447600	0.712190	0.800470
Mg31	Mg3	0.821220	0.834180	0.118540
Mg41	Mg4	0.081480	0.287240	0.527460
Mg51	Mg5	0.947600	0.287810	0.699530
Mg61	Mg6	0.321220	0.165820	0.381460
Mg71	Mg7	0.418520	0.287240	0.027460
Mg81	Mg8	0.552400	0.287810	0.199530
Mg91	Mg9	0.178780	0.165820	0.881460
Mg101	Mg10	0.918520	0.712760	0.472540
Mg111	Mg11	0.052400	0.712190	0.300470
Mg121	Mg12	0.678780	0.834180	0.618540
H11	H1	0.691000	0.700300	0.726500
H21	H2	0.901600	0.528600	0.568100
H31	H3	0.787500	0.499300	0.757400
H41	H4	0.657400	0.825400	0.879600
H51	H5	0.682000	0.054000	0.071300
H61	H6	0.544900	0.033100	0.866100
H71	H7	0.191000	0.299700	0.773500
H81	H8	0.401600	0.471400	0.931900
H91	H9	0.287500	0.500700	0.742600
H101	H10	0.157400	0.174600	0.620400
H111	H11	0.182000	0.946000	0.428700
H121	H12	0.044900	0.966900	0.633900
H131	H13	0.309000	0.299700	0.273500
H141	H14	0.098400	0.471400	0.431900
H151	H15	0.212500	0.500700	0.242600
H161	H16	0.342600	0.174600	0.120400
H171	H17	0.318000	0.946000	0.928700
H181	H18	0.455100	0.966900	0.133900
H191	H19	0.809000	0.700300	0.226500
H201	H20	0.598400	0.528600	0.068100
H211	H21	0.712500	0.499300	0.257400
H221	H22	0.842600	0.825400	0.379600
H231	H23	0.818000	0.054000	0.571300
H241	H24	0.955100	0.033100	0.366100
C11	C1	0.797300	0.623200	0.640600
C21	C2	0.733900	0.651200	0.710300
C31	C3	0.733600	0.606800	0.756300
C41	C4	0.857100	0.546900	0.614000
C51	C5	0.675600	0.643100	0.836200
C61	C6	0.794900	0.675800	0.595100
C71	C7	0.789900	0.530300	0.727800
C81	C8	0.850300	0.498200	0.656000
C91	C9	0.902300	0.412100	0.627500
C101	C10	0.726300	0.892700	0.032100
C111	C11	0.645900	0.883900	0.903300
C121	C12	0.677300	0.933900	0.983700
C131	C13	0.597500	0.921000	0.858700
C141	C14	0.658800	0.020400	0.018500
C151	C15	0.573200	0.151400	0.021300
C161	C16	0.577800	0.008100	0.895700
C171	C17	0.605900	0.058600	0.975900
C181	C18	0.564200	0.863700	0.772300
C191	C19	0.297300	0.376800	0.859400
C201	C20	0.233900	0.348800	0.789700
C211	C21	0.233600	0.393200	0.743700
C221	C22	0.357100	0.453100	0.886000
C231	C23	0.175600	0.356900	0.663800
C241	C24	0.294900	0.324200	0.904900
C251	C25	0.289900	0.469700	0.772200
C261	C26	0.350300	0.501800	0.844000
C271	C27	0.402300	0.587900	0.872500
C281	C28	0.226300	0.107300	0.467900
C291	C29	0.145900	0.116100	0.596700
C301	C30	0.177300	0.066100	0.516300
C311	C31	0.097500	0.079000	0.641300
C321	C32	0.158800	0.979600	0.481500
C331	C33	0.073200	0.848600	0.478700
C341	C34	0.077800	0.991900	0.604300
C351	C35	0.105900	0.941400	0.524100
C361	C36	0.064200	0.136300	0.727700
C371	C37	0.202700	0.376800	0.359400
C381	C38	0.266100	0.348800	0.289700
C391	C39	0.266400	0.393200	0.243700
C401	C40	0.142900	0.453100	0.386000
C411	C41	0.324400	0.356900	0.163800
C421	C42	0.205100	0.324200	0.404900
C431	C43	0.210100	0.469700	0.272200
C441	C44	0.149700	0.501800	0.344000
C451	C45	0.097700	0.587900	0.372500
C461	C46	0.273700	0.107300	0.967900
C471	C47	0.354100	0.116100	0.096700
C481	C48	0.322700	0.066100	0.016300
C491	C49	0.402500	0.079000	0.141300
C501	C50	0.341200	0.979600	0.981500
C511	C51	0.426800	0.848600	0.978700
C521	C52	0.422200	0.991900	0.104300
C531	C53	0.394100	0.941400	0.024100
C541	C54	0.435800	0.136300	0.227700
C551	C55	0.702700	0.623200	0.140600
C561	C56	0.766100	0.651200	0.210300
C571	C57	0.766400	0.606800	0.256300
C581	C58	0.642900	0.546900	0.114000
C591	C59	0.824400	0.643100	0.336200
C601	C60	0.705100	0.675800	0.095100
C611	C61	0.710100	0.530300	0.227800
C621	C62	0.649700	0.498200	0.156000
C631	C63	0.597700	0.412100	0.127500
C641	C64	0.773700	0.892700	0.532100
C651	C65	0.854100	0.883900	0.403300
C661	C66	0.822700	0.933900	0.483700
C671	C67	0.902500	0.921000	0.358700
C681	C68	0.841200	0.020400	0.518500
C691	C69	0.926800	0.151400	0.521300
C701	C70	0.922200	0.008100	0.395700
C711	C71	0.894100	0.058600	0.475900
C721	C72	0.935800	0.863700	0.272300
O11	O1	0.594600	0.695090	0.849120
O21	O2	0.882500	0.679040	0.559550
O31	O3	0.709700	0.627000	0.891420
O41	O4	0.965700	0.385310	0.566580
O51	O5	0.705200	0.714300	0.598100
O61	O6	0.877100	0.372100	0.666500
O71	O7	0.713400	0.813240	0.009750
O81	O8	0.782200	0.937300	0.094330
O91	O9	0.594400	0.186770	0.094750
O101	O10	0.524000	0.185130	0.982630
O111	O11	0.520900	0.793430	0.757300
O121	O12	0.583700	0.889100	0.719440
O131	O13	0.094600	0.304910	0.650880
O141	O14	0.382500	0.320960	0.940450
O151	O15	0.209700	0.373000	0.608580
O161	O16	0.465700	0.614690	0.933420
O171	O17	0.205200	0.285700	0.901900
O181	O18	0.377100	0.627900	0.833500
O191	O19	0.213400	0.186760	0.490250
O201	O20	0.282200	0.062700	0.405670
O211	O21	0.094400	0.813230	0.405250
O221	O22	0.024000	0.814870	0.517370
O231	O23	0.020900	0.206570	0.742700
O241	O24	0.083700	0.110900	0.780560
O251	O25	0.405400	0.304910	0.150880
O261	O26	0.117500	0.320960	0.440450
O271	O27	0.290300	0.373000	0.108580
O281	O28	0.034300	0.614690	0.433420
O291	O29	0.294800	0.285700	0.401900
O301	O30	0.122900	0.627900	0.333500
O311	O31	0.286600	0.186760	0.990250
O321	O32	0.217800	0.062700	0.905670
O331	O33	0.405600	0.813230	0.905250
O341	O34	0.476000	0.814870	0.017370
O351	O35	0.479100	0.206570	0.242700
O361	O36	0.416300	0.110900	0.280560
O371	O37	0.905400	0.695090	0.349120
O381	O38	0.617500	0.679040	0.059550
O391	O39	0.790300	0.627000	0.391420
O401	O40	0.534300	0.385310	0.066580
O411	O41	0.794800	0.714300	0.098100
O421	O42	0.622900	0.372100	0.166500
O431	O43	0.786600	0.813240	0.509750
O441	O44	0.717800	0.937300	0.594330
O451	O45	0.905600	0.186770	0.594750
O461	O46	0.976000	0.185130	0.482630
O471	O47	0.979100	0.793430	0.257300
O481	O48	0.916300	0.889100	0.219440
