data_XEKCEX_clean_PM
_symmetry_space_group_name_H-M	'P1'
_cell_length_a	19.449800
_cell_length_b	26.857200
_cell_length_c	34.812000
_cell_angle_alpha	90.000000
_cell_angle_beta	90.000000
_cell_angle_gamma	90.000000
_symmetry_Int_Tables_number 1

loop_
_symmetry_equiv_pos_as_xyz
'x,y,z'

loop_
_atom_site_label
_atom_site_type_symbol
_atom_site_fract_x
_atom_site_fract_y
_atom_site_fract_z
K11	K1	0.561030	0.635100	0.483980
Pr11	Pr1	0.743950	0.558110	0.932120
Pr21	Pr2	0.743050	0.568950	0.259930
Pt11	Pt1	0.753050	0.564350	0.096330
Pt21	Pt2	0.992010	0.561640	0.844660
Pt31	Pt3	0.500810	0.563670	0.839440
Pt41	Pt4	0.244790	0.557670	0.094850
C11	C1	0.651600	0.563000	0.098700
C21	C2	0.747700	0.561900	0.039400
C31	C3	0.854500	0.563100	0.092900
C41	C4	0.759400	0.568100	0.153700
C51	C5	0.041000	0.562700	0.895200
C61	C6	0.081400	0.566900	0.816800
C71	C7	0.945700	0.561000	0.793300
C81	C8	0.902300	0.555500	0.872100
C91	C9	0.586100	0.562800	0.871000
C101	C10	0.559200	0.564500	0.793500
C111	C11	0.418200	0.566000	0.807000
C121	C12	0.445200	0.562100	0.887900
C131	C13	0.171500	0.560400	0.134200
C141	C14	0.315000	0.555400	0.137400
C151	C15	0.317100	0.553200	0.055500
C161	C16	0.172300	0.558900	0.053000
N11	N1	0.593100	0.558400	0.100200
N21	N2	0.746700	0.560600	0.006380
N31	N3	0.912900	0.563600	0.090800
N41	N4	0.761700	0.571100	0.186250
N51	N5	0.070200	0.563100	0.922900
N61	N6	0.130800	0.567800	0.799930
N71	N7	0.923500	0.560300	0.763000
N81	N8	0.851200	0.551900	0.887490
N91	N9	0.635400	0.563400	0.888500
N101	N10	0.592800	0.565500	0.766300
N111	N11	0.371000	0.568100	0.787200
N121	N12	0.414000	0.563000	0.915100
N131	N13	0.133100	0.561500	0.157500
N141	N14	0.351500	0.552900	0.162100
N151	N15	0.357100	0.549200	0.031900
N161	N16	0.128900	0.558500	0.031300
O11	O1	0.458100	0.558300	0.484010
K21	K2	0.561030	0.135100	0.983980
Pr31	Pr3	0.743950	0.058110	0.432120
Pr41	Pr4	0.743050	0.068950	0.759930
Pt51	Pt5	0.753050	0.064350	0.596330
Pt61	Pt6	0.992010	0.061640	0.344660
Pt71	Pt7	0.500810	0.063670	0.339440
Pt81	Pt8	0.244790	0.057670	0.594850
C171	C17	0.651600	0.063000	0.598700
C181	C18	0.747700	0.061900	0.539400
C191	C19	0.854500	0.063100	0.592900
C201	C20	0.759400	0.068100	0.653700
C211	C21	0.041000	0.062700	0.395200
C221	C22	0.081400	0.066900	0.316800
C231	C23	0.945700	0.061000	0.293300
C241	C24	0.902300	0.055500	0.372100
C251	C25	0.586100	0.062800	0.371000
C261	C26	0.559200	0.064500	0.293500
C271	C27	0.418200	0.066000	0.307000
C281	C28	0.445200	0.062100	0.387900
C291	C29	0.171500	0.060400	0.634200
C301	C30	0.315000	0.055400	0.637400
C311	C31	0.317100	0.053200	0.555500
C321	C32	0.172300	0.058900	0.553000
N171	N17	0.593100	0.058400	0.600200
N181	N18	0.746700	0.060600	0.506380
N191	N19	0.912900	0.063600	0.590800
N201	N20	0.761700	0.071100	0.686250
N211	N21	0.070200	0.063100	0.422900
N221	N22	0.130800	0.067800	0.299930
N231	N23	0.923500	0.060300	0.263000
N241	N24	0.851200	0.051900	0.387490
N251	N25	0.635400	0.063400	0.388500
N261	N26	0.592800	0.065500	0.266300
N271	N27	0.371000	0.068100	0.287200
N281	N28	0.414000	0.063000	0.415100
N291	N29	0.133100	0.061500	0.657500
N301	N30	0.351500	0.052900	0.662100
N311	N31	0.357100	0.049200	0.531900
N321	N32	0.128900	0.058500	0.531300
O21	O2	0.458100	0.058300	0.984010
K31	K3	0.061030	0.635100	0.983980
Pr51	Pr5	0.243950	0.558110	0.432120
Pr61	Pr6	0.243050	0.568950	0.759930
Pt91	Pt9	0.253050	0.564350	0.596330
Pt101	Pt10	0.492010	0.561640	0.344660
Pt111	Pt11	0.000810	0.563670	0.339440
Pt121	Pt12	0.744790	0.557670	0.594850
C331	C33	0.151600	0.563000	0.598700
C341	C34	0.247700	0.561900	0.539400
C351	C35	0.354500	0.563100	0.592900
C361	C36	0.259400	0.568100	0.653700
C371	C37	0.541000	0.562700	0.395200
C381	C38	0.581400	0.566900	0.316800
C391	C39	0.445700	0.561000	0.293300
C401	C40	0.402300	0.555500	0.372100
C411	C41	0.086100	0.562800	0.371000
C421	C42	0.059200	0.564500	0.293500
C431	C43	0.918200	0.566000	0.307000
C441	C44	0.945200	0.562100	0.387900
C451	C45	0.671500	0.560400	0.634200
C461	C46	0.815000	0.555400	0.637400
C471	C47	0.817100	0.553200	0.555500
C481	C48	0.672300	0.558900	0.553000
N331	N33	0.093100	0.558400	0.600200
N341	N34	0.246700	0.560600	0.506380
N351	N35	0.412900	0.563600	0.590800
N361	N36	0.261700	0.571100	0.686250
N371	N37	0.570200	0.563100	0.422900
N381	N38	0.630800	0.567800	0.299930
N391	N39	0.423500	0.560300	0.263000
N401	N40	0.351200	0.551900	0.387490
N411	N41	0.135400	0.563400	0.388500
N421	N42	0.092800	0.565500	0.266300
N431	N43	0.871000	0.568100	0.287200
N441	N44	0.914000	0.563000	0.415100
N451	N45	0.633100	0.561500	0.657500
N461	N46	0.851500	0.552900	0.662100
N471	N47	0.857100	0.549200	0.531900
N481	N48	0.628900	0.558500	0.531300
O31	O3	0.958100	0.558300	0.984010
K41	K4	0.061030	0.135100	0.483980
Pr71	Pr7	0.243950	0.058110	0.932120
Pr81	Pr8	0.243050	0.068950	0.259930
Pt131	Pt13	0.253050	0.064350	0.096330
Pt141	Pt14	0.492010	0.061640	0.844660
Pt151	Pt15	0.000810	0.063670	0.839440
Pt161	Pt16	0.744790	0.057670	0.094850
C491	C49	0.151600	0.063000	0.098700
C501	C50	0.247700	0.061900	0.039400
C511	C51	0.354500	0.063100	0.092900
C521	C52	0.259400	0.068100	0.153700
C531	C53	0.541000	0.062700	0.895200
C541	C54	0.581400	0.066900	0.816800
C551	C55	0.445700	0.061000	0.793300
C561	C56	0.402300	0.055500	0.872100
C571	C57	0.086100	0.062800	0.871000
C581	C58	0.059200	0.064500	0.793500
C591	C59	0.918200	0.066000	0.807000
C601	C60	0.945200	0.062100	0.887900
C611	C61	0.671500	0.060400	0.134200
C621	C62	0.815000	0.055400	0.137400
C631	C63	0.817100	0.053200	0.055500
C641	C64	0.672300	0.058900	0.053000
N491	N49	0.093100	0.058400	0.100200
N501	N50	0.246700	0.060600	0.006380
N511	N51	0.412900	0.063600	0.090800
N521	N52	0.261700	0.071100	0.186250
N531	N53	0.570200	0.063100	0.922900
N541	N54	0.630800	0.067800	0.799930
N551	N55	0.423500	0.060300	0.763000
N561	N56	0.351200	0.051900	0.887490
N571	N57	0.135400	0.063400	0.888500
N581	N58	0.092800	0.065500	0.766300
N591	N59	0.871000	0.068100	0.787200
N601	N60	0.914000	0.063000	0.915100
N611	N61	0.633100	0.061500	0.157500
N621	N62	0.851500	0.052900	0.162100
N631	N63	0.857100	0.049200	0.031900
N641	N64	0.628900	0.058500	0.031300
O41	O4	0.958100	0.058300	0.484010
K51	K5	0.438970	0.364900	0.483980
Pr91	Pr9	0.256050	0.441890	0.932120
Pr101	Pr10	0.256950	0.431050	0.259930
Pt171	Pt17	0.246950	0.435650	0.096330
Pt181	Pt18	0.007990	0.438360	0.844660
Pt191	Pt19	0.499190	0.436330	0.839440
Pt201	Pt20	0.755210	0.442330	0.094850
C651	C65	0.348400	0.437000	0.098700
C661	C66	0.252300	0.438100	0.039400
C671	C67	0.145500	0.436900	0.092900
C681	C68	0.240600	0.431900	0.153700
C691	C69	0.959000	0.437300	0.895200
C701	C70	0.918600	0.433100	0.816800
C711	C71	0.054300	0.439000	0.793300
C721	C72	0.097700	0.444500	0.872100
C731	C73	0.413900	0.437200	0.871000
C741	C74	0.440800	0.435500	0.793500
C751	C75	0.581800	0.434000	0.807000
C761	C76	0.554800	0.437900	0.887900
C771	C77	0.828500	0.439600	0.134200
C781	C78	0.685000	0.444600	0.137400
C791	C79	0.682900	0.446800	0.055500
C801	C80	0.827700	0.441100	0.053000
N651	N65	0.406900	0.441600	0.100200
N661	N66	0.253300	0.439400	0.006380
N671	N67	0.087100	0.436400	0.090800
N681	N68	0.238300	0.428900	0.186250
N691	N69	0.929800	0.436900	0.922900
N701	N70	0.869200	0.432200	0.799930
N711	N71	0.076500	0.439700	0.763000
N721	N72	0.148800	0.448100	0.887490
N731	N73	0.364600	0.436600	0.888500
N741	N74	0.407200	0.434500	0.766300
N751	N75	0.629000	0.431900	0.787200
N761	N76	0.586000	0.437000	0.915100
N771	N77	0.866900	0.438500	0.157500
N781	N78	0.648500	0.447100	0.162100
N791	N79	0.642900	0.450800	0.031900
N801	N80	0.871100	0.441500	0.031300
O51	O5	0.541900	0.441700	0.484010
K61	K6	0.438970	0.864900	0.983980
Pr111	Pr11	0.256050	0.941890	0.432120
Pr121	Pr12	0.256950	0.931050	0.759930
Pt211	Pt21	0.246950	0.935650	0.596330
Pt221	Pt22	0.007990	0.938360	0.344660
Pt231	Pt23	0.499190	0.936330	0.339440
Pt241	Pt24	0.755210	0.942330	0.594850
C811	C81	0.348400	0.937000	0.598700
C821	C82	0.252300	0.938100	0.539400
C831	C83	0.145500	0.936900	0.592900
C841	C84	0.240600	0.931900	0.653700
C851	C85	0.959000	0.937300	0.395200
C861	C86	0.918600	0.933100	0.316800
C871	C87	0.054300	0.939000	0.293300
C881	C88	0.097700	0.944500	0.372100
C891	C89	0.413900	0.937200	0.371000
C901	C90	0.440800	0.935500	0.293500
C911	C91	0.581800	0.934000	0.307000
C921	C92	0.554800	0.937900	0.387900
C931	C93	0.828500	0.939600	0.634200
C941	C94	0.685000	0.944600	0.637400
C951	C95	0.682900	0.946800	0.555500
C961	C96	0.827700	0.941100	0.553000
N811	N81	0.406900	0.941600	0.600200
N821	N82	0.253300	0.939400	0.506380
N831	N83	0.087100	0.936400	0.590800
N841	N84	0.238300	0.928900	0.686250
N851	N85	0.929800	0.936900	0.422900
N861	N86	0.869200	0.932200	0.299930
N871	N87	0.076500	0.939700	0.263000
N881	N88	0.148800	0.948100	0.387490
N891	N89	0.364600	0.936600	0.388500
N901	N90	0.407200	0.934500	0.266300
N911	N91	0.629000	0.931900	0.287200
N921	N92	0.586000	0.937000	0.415100
N931	N93	0.866900	0.938500	0.657500
N941	N94	0.648500	0.947100	0.662100
N951	N95	0.642900	0.950800	0.531900
N961	N96	0.871100	0.941500	0.531300
O61	O6	0.541900	0.941700	0.984010
K71	K7	0.938970	0.364900	0.983980
Pr131	Pr13	0.756050	0.441890	0.432120
Pr141	Pr14	0.756950	0.431050	0.759930
Pt251	Pt25	0.746950	0.435650	0.596330
Pt261	Pt26	0.507990	0.438360	0.344660
Pt271	Pt27	0.999190	0.436330	0.339440
Pt281	Pt28	0.255210	0.442330	0.594850
C971	C97	0.848400	0.437000	0.598700
C981	C98	0.752300	0.438100	0.539400
C991	C99	0.645500	0.436900	0.592900
C1001	C100	0.740600	0.431900	0.653700
C1011	C101	0.459000	0.437300	0.395200
C1021	C102	0.418600	0.433100	0.316800
C1031	C103	0.554300	0.439000	0.293300
C1041	C104	0.597700	0.444500	0.372100
C1051	C105	0.913900	0.437200	0.371000
C1061	C106	0.940800	0.435500	0.293500
C1071	C107	0.081800	0.434000	0.307000
C1081	C108	0.054800	0.437900	0.387900
C1091	C109	0.328500	0.439600	0.634200
C1101	C110	0.185000	0.444600	0.637400
C1111	C111	0.182900	0.446800	0.555500
C1121	C112	0.327700	0.441100	0.553000
N971	N97	0.906900	0.441600	0.600200
N981	N98	0.753300	0.439400	0.506380
N991	N99	0.587100	0.436400	0.590800
N1001	N100	0.738300	0.428900	0.686250
N1011	N101	0.429800	0.436900	0.422900
N1021	N102	0.369200	0.432200	0.299930
N1031	N103	0.576500	0.439700	0.263000
N1041	N104	0.648800	0.448100	0.387490
N1051	N105	0.864600	0.436600	0.388500
N1061	N106	0.907200	0.434500	0.266300
N1071	N107	0.129000	0.431900	0.287200
N1081	N108	0.086000	0.437000	0.415100
N1091	N109	0.366900	0.438500	0.657500
N1101	N110	0.148500	0.447100	0.662100
N1111	N111	0.142900	0.450800	0.531900
N1121	N112	0.371100	0.441500	0.531300
O71	O7	0.041900	0.441700	0.984010
K81	K8	0.938970	0.864900	0.483980
Pr151	Pr15	0.756050	0.941890	0.932120
Pr161	Pr16	0.756950	0.931050	0.259930
Pt291	Pt29	0.746950	0.935650	0.096330
Pt301	Pt30	0.507990	0.938360	0.844660
Pt311	Pt31	0.999190	0.936330	0.839440
Pt321	Pt32	0.255210	0.942330	0.094850
C1131	C113	0.848400	0.937000	0.098700
C1141	C114	0.752300	0.938100	0.039400
C1151	C115	0.645500	0.936900	0.092900
C1161	C116	0.740600	0.931900	0.153700
C1171	C117	0.459000	0.937300	0.895200
C1181	C118	0.418600	0.933100	0.816800
C1191	C119	0.554300	0.939000	0.793300
C1201	C120	0.597700	0.944500	0.872100
C1211	C121	0.913900	0.937200	0.871000
C1221	C122	0.940800	0.935500	0.793500
C1231	C123	0.081800	0.934000	0.807000
C1241	C124	0.054800	0.937900	0.887900
C1251	C125	0.328500	0.939600	0.134200
C1261	C126	0.185000	0.944600	0.137400
C1271	C127	0.182900	0.946800	0.055500
C1281	C128	0.327700	0.941100	0.053000
N1131	N113	0.906900	0.941600	0.100200
N1141	N114	0.753300	0.939400	0.006380
N1151	N115	0.587100	0.936400	0.090800
N1161	N116	0.738300	0.928900	0.186250
N1171	N117	0.429800	0.936900	0.922900
N1181	N118	0.369200	0.932200	0.799930
N1191	N119	0.576500	0.939700	0.763000
N1201	N120	0.648800	0.948100	0.887490
N1211	N121	0.864600	0.936600	0.888500
N1221	N122	0.907200	0.934500	0.766300
N1231	N123	0.129000	0.931900	0.787200
N1241	N124	0.086000	0.937000	0.915100
N1251	N125	0.366900	0.938500	0.157500
N1261	N126	0.148500	0.947100	0.162100
N1271	N127	0.142900	0.950800	0.031900
N1281	N128	0.371100	0.941500	0.031300
O81	O8	0.041900	0.941700	0.484010
K91	K9	0.811030	0.614900	0.733980
Pr171	Pr17	0.993950	0.691890	0.182120
Pr181	Pr18	0.993050	0.681050	0.509930
Pt331	Pt33	0.003050	0.685650	0.346330
Pt341	Pt34	0.242010	0.688360	0.094660
Pt351	Pt35	0.750810	0.686330	0.089440
Pt361	Pt36	0.494790	0.692330	0.344850
C1291	C129	0.901600	0.687000	0.348700
C1301	C130	0.997700	0.688100	0.289400
C1311	C131	0.104500	0.686900	0.342900
C1321	C132	0.009400	0.681900	0.403700
C1331	C133	0.291000	0.687300	0.145200
C1341	C134	0.331400	0.683100	0.066800
C1351	C135	0.195700	0.689000	0.043300
C1361	C136	0.152300	0.694500	0.122100
C1371	C137	0.836100	0.687200	0.121000
C1381	C138	0.809200	0.685500	0.043500
C1391	C139	0.668200	0.684000	0.057000
C1401	C140	0.695200	0.687900	0.137900
C1411	C141	0.421500	0.689600	0.384200
C1421	C142	0.565000	0.694600	0.387400
C1431	C143	0.567100	0.696800	0.305500
C1441	C144	0.422300	0.691100	0.303000
N1291	N129	0.843100	0.691600	0.350200
N1301	N130	0.996700	0.689400	0.256380
N1311	N131	0.162900	0.686400	0.340800
N1321	N132	0.011700	0.678900	0.436250
N1331	N133	0.320200	0.686900	0.172900
N1341	N134	0.380800	0.682200	0.049930
N1351	N135	0.173500	0.689700	0.013000
N1361	N136	0.101200	0.698100	0.137490
N1371	N137	0.885400	0.686600	0.138500
N1381	N138	0.842800	0.684500	0.016300
N1391	N139	0.621000	0.681900	0.037200
N1401	N140	0.664000	0.687000	0.165100
N1411	N141	0.383100	0.688500	0.407500
N1421	N142	0.601500	0.697100	0.412100
N1431	N143	0.607100	0.700800	0.281900
N1441	N144	0.378900	0.691500	0.281300
O91	O9	0.708100	0.691700	0.734010
K101	K10	0.811030	0.114900	0.233980
Pr191	Pr19	0.993950	0.191890	0.682120
Pr201	Pr20	0.993050	0.181050	0.009930
Pt371	Pt37	0.003050	0.185650	0.846330
Pt381	Pt38	0.242010	0.188360	0.594660
Pt391	Pt39	0.750810	0.186330	0.589440
Pt401	Pt40	0.494790	0.192330	0.844850
C1451	C145	0.901600	0.187000	0.848700
C1461	C146	0.997700	0.188100	0.789400
C1471	C147	0.104500	0.186900	0.842900
C1481	C148	0.009400	0.181900	0.903700
C1491	C149	0.291000	0.187300	0.645200
C1501	C150	0.331400	0.183100	0.566800
C1511	C151	0.195700	0.189000	0.543300
C1521	C152	0.152300	0.194500	0.622100
C1531	C153	0.836100	0.187200	0.621000
C1541	C154	0.809200	0.185500	0.543500
C1551	C155	0.668200	0.184000	0.557000
C1561	C156	0.695200	0.187900	0.637900
C1571	C157	0.421500	0.189600	0.884200
C1581	C158	0.565000	0.194600	0.887400
C1591	C159	0.567100	0.196800	0.805500
C1601	C160	0.422300	0.191100	0.803000
N1451	N145	0.843100	0.191600	0.850200
N1461	N146	0.996700	0.189400	0.756380
N1471	N147	0.162900	0.186400	0.840800
N1481	N148	0.011700	0.178900	0.936250
N1491	N149	0.320200	0.186900	0.672900
N1501	N150	0.380800	0.182200	0.549930
N1511	N151	0.173500	0.189700	0.513000
N1521	N152	0.101200	0.198100	0.637490
N1531	N153	0.885400	0.186600	0.638500
N1541	N154	0.842800	0.184500	0.516300
N1551	N155	0.621000	0.181900	0.537200
N1561	N156	0.664000	0.187000	0.665100
N1571	N157	0.383100	0.188500	0.907500
N1581	N158	0.601500	0.197100	0.912100
N1591	N159	0.607100	0.200800	0.781900
N1601	N160	0.378900	0.191500	0.781300
O101	O10	0.708100	0.191700	0.234010
K111	K11	0.311030	0.614900	0.233980
Pr211	Pr21	0.493950	0.691890	0.682120
Pr221	Pr22	0.493050	0.681050	0.009930
Pt411	Pt41	0.503050	0.685650	0.846330
Pt421	Pt42	0.742010	0.688360	0.594660
Pt431	Pt43	0.250810	0.686330	0.589440
Pt441	Pt44	0.994790	0.692330	0.844850
C1611	C161	0.401600	0.687000	0.848700
C1621	C162	0.497700	0.688100	0.789400
C1631	C163	0.604500	0.686900	0.842900
C1641	C164	0.509400	0.681900	0.903700
C1651	C165	0.791000	0.687300	0.645200
C1661	C166	0.831400	0.683100	0.566800
C1671	C167	0.695700	0.689000	0.543300
C1681	C168	0.652300	0.694500	0.622100
C1691	C169	0.336100	0.687200	0.621000
C1701	C170	0.309200	0.685500	0.543500
C1711	C171	0.168200	0.684000	0.557000
C1721	C172	0.195200	0.687900	0.637900
C1731	C173	0.921500	0.689600	0.884200
C1741	C174	0.065000	0.694600	0.887400
C1751	C175	0.067100	0.696800	0.805500
C1761	C176	0.922300	0.691100	0.803000
N1611	N161	0.343100	0.691600	0.850200
N1621	N162	0.496700	0.689400	0.756380
N1631	N163	0.662900	0.686400	0.840800
N1641	N164	0.511700	0.678900	0.936250
N1651	N165	0.820200	0.686900	0.672900
N1661	N166	0.880800	0.682200	0.549930
N1671	N167	0.673500	0.689700	0.513000
N1681	N168	0.601200	0.698100	0.637490
N1691	N169	0.385400	0.686600	0.638500
N1701	N170	0.342800	0.684500	0.516300
N1711	N171	0.121000	0.681900	0.537200
N1721	N172	0.164000	0.687000	0.665100
N1731	N173	0.883100	0.688500	0.907500
N1741	N174	0.101500	0.697100	0.912100
N1751	N175	0.107100	0.700800	0.781900
N1761	N176	0.878900	0.691500	0.781300
O111	O11	0.208100	0.691700	0.234010
K121	K12	0.311030	0.114900	0.733980
Pr231	Pr23	0.493950	0.191890	0.182120
Pr241	Pr24	0.493050	0.181050	0.509930
Pt451	Pt45	0.503050	0.185650	0.346330
Pt461	Pt46	0.742010	0.188360	0.094660
Pt471	Pt47	0.250810	0.186330	0.089440
Pt481	Pt48	0.994790	0.192330	0.344850
C1771	C177	0.401600	0.187000	0.348700
C1781	C178	0.497700	0.188100	0.289400
C1791	C179	0.604500	0.186900	0.342900
C1801	C180	0.509400	0.181900	0.403700
C1811	C181	0.791000	0.187300	0.145200
C1821	C182	0.831400	0.183100	0.066800
C1831	C183	0.695700	0.189000	0.043300
C1841	C184	0.652300	0.194500	0.122100
C1851	C185	0.336100	0.187200	0.121000
C1861	C186	0.309200	0.185500	0.043500
C1871	C187	0.168200	0.184000	0.057000
C1881	C188	0.195200	0.187900	0.137900
C1891	C189	0.921500	0.189600	0.384200
C1901	C190	0.065000	0.194600	0.387400
C1911	C191	0.067100	0.196800	0.305500
C1921	C192	0.922300	0.191100	0.303000
N1771	N177	0.343100	0.191600	0.350200
N1781	N178	0.496700	0.189400	0.256380
N1791	N179	0.662900	0.186400	0.340800
N1801	N180	0.511700	0.178900	0.436250
N1811	N181	0.820200	0.186900	0.172900
N1821	N182	0.880800	0.182200	0.049930
N1831	N183	0.673500	0.189700	0.013000
N1841	N184	0.601200	0.198100	0.137490
N1851	N185	0.385400	0.186600	0.138500
N1861	N186	0.342800	0.184500	0.016300
N1871	N187	0.121000	0.181900	0.037200
N1881	N188	0.164000	0.187000	0.165100
N1891	N189	0.883100	0.188500	0.407500
N1901	N190	0.101500	0.197100	0.412100
N1911	N191	0.107100	0.200800	0.281900
N1921	N192	0.878900	0.191500	0.281300
O121	O12	0.208100	0.191700	0.734010
K131	K13	0.688970	0.885100	0.733980
Pr251	Pr25	0.506050	0.808110	0.182120
Pr261	Pr26	0.506950	0.818950	0.509930
Pt491	Pt49	0.496950	0.814350	0.346330
Pt501	Pt50	0.257990	0.811640	0.094660
Pt511	Pt51	0.749190	0.813670	0.089440
Pt521	Pt52	0.005210	0.807670	0.344850
C1931	C193	0.598400	0.813000	0.348700
C1941	C194	0.502300	0.811900	0.289400
C1951	C195	0.395500	0.813100	0.342900
C1961	C196	0.490600	0.818100	0.403700
C1971	C197	0.209000	0.812700	0.145200
C1981	C198	0.168600	0.816900	0.066800
C1991	C199	0.304300	0.811000	0.043300
C2001	C200	0.347700	0.805500	0.122100
C2011	C201	0.663900	0.812800	0.121000
C2021	C202	0.690800	0.814500	0.043500
C2031	C203	0.831800	0.816000	0.057000
C2041	C204	0.804800	0.812100	0.137900
C2051	C205	0.078500	0.810400	0.384200
C2061	C206	0.935000	0.805400	0.387400
C2071	C207	0.932900	0.803200	0.305500
C2081	C208	0.077700	0.808900	0.303000
N1931	N193	0.656900	0.808400	0.350200
N1941	N194	0.503300	0.810600	0.256380
N1951	N195	0.337100	0.813600	0.340800
N1961	N196	0.488300	0.821100	0.436250
N1971	N197	0.179800	0.813100	0.172900
N1981	N198	0.119200	0.817800	0.049930
N1991	N199	0.326500	0.810300	0.013000
N2001	N200	0.398800	0.801900	0.137490
N2011	N201	0.614600	0.813400	0.138500
N2021	N202	0.657200	0.815500	0.016300
N2031	N203	0.879000	0.818100	0.037200
N2041	N204	0.836000	0.813000	0.165100
N2051	N205	0.116900	0.811500	0.407500
N2061	N206	0.898500	0.802900	0.412100
N2071	N207	0.892900	0.799200	0.281900
N2081	N208	0.121100	0.808500	0.281300
O131	O13	0.791900	0.808300	0.734010
K141	K14	0.688970	0.385100	0.233980
Pr271	Pr27	0.506050	0.308110	0.682120
Pr281	Pr28	0.506950	0.318950	0.009930
Pt531	Pt53	0.496950	0.314350	0.846330
Pt541	Pt54	0.257990	0.311640	0.594660
Pt551	Pt55	0.749190	0.313670	0.589440
Pt561	Pt56	0.005210	0.307670	0.844850
C2091	C209	0.598400	0.313000	0.848700
C2101	C210	0.502300	0.311900	0.789400
C2111	C211	0.395500	0.313100	0.842900
C2121	C212	0.490600	0.318100	0.903700
C2131	C213	0.209000	0.312700	0.645200
C2141	C214	0.168600	0.316900	0.566800
C2151	C215	0.304300	0.311000	0.543300
C2161	C216	0.347700	0.305500	0.622100
C2171	C217	0.663900	0.312800	0.621000
C2181	C218	0.690800	0.314500	0.543500
C2191	C219	0.831800	0.316000	0.557000
C2201	C220	0.804800	0.312100	0.637900
C2211	C221	0.078500	0.310400	0.884200
C2221	C222	0.935000	0.305400	0.887400
C2231	C223	0.932900	0.303200	0.805500
C2241	C224	0.077700	0.308900	0.803000
N2091	N209	0.656900	0.308400	0.850200
N2101	N210	0.503300	0.310600	0.756380
N2111	N211	0.337100	0.313600	0.840800
N2121	N212	0.488300	0.321100	0.936250
N2131	N213	0.179800	0.313100	0.672900
N2141	N214	0.119200	0.317800	0.549930
N2151	N215	0.326500	0.310300	0.513000
N2161	N216	0.398800	0.301900	0.637490
N2171	N217	0.614600	0.313400	0.638500
N2181	N218	0.657200	0.315500	0.516300
N2191	N219	0.879000	0.318100	0.537200
N2201	N220	0.836000	0.313000	0.665100
N2211	N221	0.116900	0.311500	0.907500
N2221	N222	0.898500	0.302900	0.912100
N2231	N223	0.892900	0.299200	0.781900
N2241	N224	0.121100	0.308500	0.781300
O141	O14	0.791900	0.308300	0.234010
K151	K15	0.188970	0.885100	0.233980
Pr291	Pr29	0.006050	0.808110	0.682120
Pr301	Pr30	0.006950	0.818950	0.009930
Pt571	Pt57	0.996950	0.814350	0.846330
Pt581	Pt58	0.757990	0.811640	0.594660
Pt591	Pt59	0.249190	0.813670	0.589440
Pt601	Pt60	0.505210	0.807670	0.844850
C2251	C225	0.098400	0.813000	0.848700
C2261	C226	0.002300	0.811900	0.789400
C2271	C227	0.895500	0.813100	0.842900
C2281	C228	0.990600	0.818100	0.903700
C2291	C229	0.709000	0.812700	0.645200
C2301	C230	0.668600	0.816900	0.566800
C2311	C231	0.804300	0.811000	0.543300
C2321	C232	0.847700	0.805500	0.622100
C2331	C233	0.163900	0.812800	0.621000
C2341	C234	0.190800	0.814500	0.543500
C2351	C235	0.331800	0.816000	0.557000
C2361	C236	0.304800	0.812100	0.637900
C2371	C237	0.578500	0.810400	0.884200
C2381	C238	0.435000	0.805400	0.887400
C2391	C239	0.432900	0.803200	0.805500
C2401	C240	0.577700	0.808900	0.803000
N2251	N225	0.156900	0.808400	0.850200
N2261	N226	0.003300	0.810600	0.756380
N2271	N227	0.837100	0.813600	0.840800
N2281	N228	0.988300	0.821100	0.936250
N2291	N229	0.679800	0.813100	0.672900
N2301	N230	0.619200	0.817800	0.549930
N2311	N231	0.826500	0.810300	0.513000
N2321	N232	0.898800	0.801900	0.637490
N2331	N233	0.114600	0.813400	0.638500
N2341	N234	0.157200	0.815500	0.516300
N2351	N235	0.379000	0.818100	0.537200
N2361	N236	0.336000	0.813000	0.665100
N2371	N237	0.616900	0.811500	0.907500
N2381	N238	0.398500	0.802900	0.912100
N2391	N239	0.392900	0.799200	0.781900
N2401	N240	0.621100	0.808500	0.781300
O151	O15	0.291900	0.808300	0.234010
K161	K16	0.188970	0.385100	0.733980
Pr311	Pr31	0.006050	0.308110	0.182120
Pr321	Pr32	0.006950	0.318950	0.509930
Pt611	Pt61	0.996950	0.314350	0.346330
Pt621	Pt62	0.757990	0.311640	0.094660
Pt631	Pt63	0.249190	0.313670	0.089440
Pt641	Pt64	0.505210	0.307670	0.344850
C2411	C241	0.098400	0.313000	0.348700
C2421	C242	0.002300	0.311900	0.289400
C2431	C243	0.895500	0.313100	0.342900
C2441	C244	0.990600	0.318100	0.403700
C2451	C245	0.709000	0.312700	0.145200
C2461	C246	0.668600	0.316900	0.066800
C2471	C247	0.804300	0.311000	0.043300
C2481	C248	0.847700	0.305500	0.122100
C2491	C249	0.163900	0.312800	0.121000
C2501	C250	0.190800	0.314500	0.043500
C2511	C251	0.331800	0.316000	0.057000
C2521	C252	0.304800	0.312100	0.137900
C2531	C253	0.578500	0.310400	0.384200
C2541	C254	0.435000	0.305400	0.387400
C2551	C255	0.432900	0.303200	0.305500
C2561	C256	0.577700	0.308900	0.303000
N2411	N241	0.156900	0.308400	0.350200
N2421	N242	0.003300	0.310600	0.256380
N2431	N243	0.837100	0.313600	0.340800
N2441	N244	0.988300	0.321100	0.436250
N2451	N245	0.679800	0.313100	0.172900
N2461	N246	0.619200	0.317800	0.049930
N2471	N247	0.826500	0.310300	0.013000
N2481	N248	0.898800	0.301900	0.137490
N2491	N249	0.114600	0.313400	0.138500
N2501	N250	0.157200	0.315500	0.016300
N2511	N251	0.379000	0.318100	0.037200
N2521	N252	0.336000	0.313000	0.165100
N2531	N253	0.616900	0.311500	0.407500
N2541	N254	0.398500	0.302900	0.412100
N2551	N255	0.392900	0.299200	0.281900
N2561	N256	0.621100	0.308500	0.281300
O161	O16	0.291900	0.308300	0.734010
K171	K17	0.500000	0.500000	0.144270
K181	K18	0.500000	0.500000	0.545300
K191	K19	0.500000	0.000000	0.644270
K201	K20	0.500000	0.000000	0.045300
K211	K21	0.000000	0.500000	0.644270
K221	K22	0.000000	0.500000	0.045300
K231	K23	0.000000	0.000000	0.144270
K241	K24	0.000000	0.000000	0.545300
K251	K25	0.750000	0.750000	0.394270
K261	K26	0.750000	0.750000	0.795300
K271	K27	0.750000	0.250000	0.894270
K281	K28	0.750000	0.250000	0.295300
K291	K29	0.250000	0.750000	0.894270
K301	K30	0.250000	0.750000	0.295300
K311	K31	0.250000	0.250000	0.394270
K321	K32	0.250000	0.250000	0.795300
