data_XEKDOI_clean_PM
_symmetry_space_group_name_H-M	'P1'
_cell_length_a	9.334000
_cell_length_b	29.102000
_cell_length_c	7.702000
_cell_angle_alpha	90.000000
_cell_angle_beta	108.395000
_cell_angle_gamma	90.000000
_symmetry_Int_Tables_number 1

loop_
_symmetry_equiv_pos_as_xyz
'x,y,z'

loop_
_atom_site_label
_atom_site_type_symbol
_atom_site_fract_x
_atom_site_fract_y
_atom_site_fract_z
Cu11	Cu1	0.669070	0.998360	0.515190
C11	C1	0.850900	0.088200	0.531700
C21	C2	0.873100	0.139900	0.532700
C31	C3	0.754200	0.169100	0.532400
H11	H1	0.663000	0.156800	0.535100
C41	C4	0.771100	0.216100	0.528200
H21	H2	0.689600	0.234800	0.525600
C51	C5	0.904900	0.236600	0.527700
C61	C6	0.022100	0.206400	0.529300
H31	H3	0.114000	0.218700	0.528800
C71	C7	0.007400	0.159400	0.531500
H41	H4	0.088300	0.140700	0.532200
C81	C8	0.922700	0.286300	0.529700
C91	C9	0.813800	0.315900	0.559600
H51	H5	0.725500	0.303600	0.571800
C101	C10	0.835300	0.362900	0.571300
H61	H6	0.764100	0.381800	0.596600
C111	C11	0.061600	0.353900	0.509000
H71	H7	0.145400	0.367300	0.488700
C121	C12	0.048000	0.307100	0.499600
H81	H8	0.121400	0.289300	0.473600
C131	C13	0.990200	0.431500	0.569300
H91	H9	0.903600	0.446600	0.588100
H101	H10	0.003800	0.443900	0.458700
C141	C14	0.130900	0.441700	0.732100
N11	N1	0.960400	0.381400	0.545800
N21	N2	0.788000	0.988960	0.349000
N31	N3	0.761500	0.959400	0.235400
N41	N4	0.733100	0.928800	0.124400
N51	N5	0.535100	0.001000	0.672800
N61	N6	0.577500	0.019900	0.818100
N71	N7	0.618500	0.037000	0.958600
O11	O1	0.961100	0.065670	0.511600
O21	O2	0.733300	0.072470	0.548200
O31	O3	0.142400	0.484190	0.773800
O41	O4	0.217700	0.410920	0.807700
Cu21	Cu2	0.330930	0.498360	0.984810
C151	C15	0.149100	0.588200	0.968300
C161	C16	0.126900	0.639900	0.967300
C171	C17	0.245800	0.669100	0.967600
H111	H11	0.337000	0.656800	0.964900
C181	C18	0.228900	0.716100	0.971800
H121	H12	0.310400	0.734800	0.974400
C191	C19	0.095100	0.736600	0.972300
C201	C20	0.977900	0.706400	0.970700
H131	H13	0.886000	0.718700	0.971200
C211	C21	0.992600	0.659400	0.968500
H141	H14	0.911700	0.640700	0.967800
C221	C22	0.077300	0.786300	0.970300
C231	C23	0.186200	0.815900	0.940400
H151	H15	0.274500	0.803600	0.928200
C241	C24	0.164700	0.862900	0.928700
H161	H16	0.235900	0.881800	0.903400
C251	C25	0.938400	0.853900	0.991000
H171	H17	0.854600	0.867300	0.011300
C261	C26	0.952000	0.807100	0.000400
H181	H18	0.878600	0.789300	0.026400
C271	C27	0.009800	0.931500	0.930700
H191	H19	0.096400	0.946600	0.911900
H201	H20	0.996200	0.943900	0.041300
C281	C28	0.869100	0.941700	0.767900
N81	N8	0.039600	0.881400	0.954200
N91	N9	0.212000	0.488960	0.151000
N101	N10	0.238500	0.459400	0.264600
N111	N11	0.266900	0.428800	0.375600
N121	N12	0.464900	0.501000	0.827200
N131	N13	0.422500	0.519900	0.681900
N141	N14	0.381500	0.537000	0.541400
O51	O5	0.038900	0.565670	0.988400
O61	O6	0.266700	0.572470	0.951800
O71	O7	0.857600	0.984190	0.726200
O81	O8	0.782300	0.910920	0.692300
Cu31	Cu3	0.330930	0.001640	0.484810
C291	C29	0.149100	0.911800	0.468300
C301	C30	0.126900	0.860100	0.467300
C311	C31	0.245800	0.830900	0.467600
H211	H21	0.337000	0.843200	0.464900
C321	C32	0.228900	0.783900	0.471800
H221	H22	0.310400	0.765200	0.474400
C331	C33	0.095100	0.763400	0.472300
C341	C34	0.977900	0.793600	0.470700
H231	H23	0.886000	0.781300	0.471200
C351	C35	0.992600	0.840600	0.468500
H241	H24	0.911700	0.859300	0.467800
C361	C36	0.077300	0.713700	0.470300
C371	C37	0.186200	0.684100	0.440400
H251	H25	0.274500	0.696400	0.428200
C381	C38	0.164700	0.637100	0.428700
H261	H26	0.235900	0.618200	0.403400
C391	C39	0.938400	0.646100	0.491000
H271	H27	0.854600	0.632700	0.511300
C401	C40	0.952000	0.692900	0.500400
H281	H28	0.878600	0.710700	0.526400
C411	C41	0.009800	0.568500	0.430700
H291	H29	0.096400	0.553400	0.411900
H301	H30	0.996200	0.556100	0.541300
C421	C42	0.869100	0.558300	0.267900
N151	N15	0.039600	0.618600	0.454200
N161	N16	0.212000	0.011040	0.651000
N171	N17	0.238500	0.040600	0.764600
N181	N18	0.266900	0.071200	0.875600
N191	N19	0.464900	0.999000	0.327200
N201	N20	0.422500	0.980100	0.181900
N211	N21	0.381500	0.963000	0.041400
O91	O9	0.038900	0.934330	0.488400
O101	O10	0.266700	0.927530	0.451800
O111	O11	0.857600	0.515810	0.226200
O121	O12	0.782300	0.589080	0.192300
Cu41	Cu4	0.669070	0.501640	0.015190
C431	C43	0.850900	0.411800	0.031700
C441	C44	0.873100	0.360100	0.032700
C451	C45	0.754200	0.330900	0.032400
H311	H31	0.663000	0.343200	0.035100
C461	C46	0.771100	0.283900	0.028200
H321	H32	0.689600	0.265200	0.025600
C471	C47	0.904900	0.263400	0.027700
C481	C48	0.022100	0.293600	0.029300
H331	H33	0.114000	0.281300	0.028800
C491	C49	0.007400	0.340600	0.031500
H341	H34	0.088300	0.359300	0.032200
C501	C50	0.922700	0.213700	0.029700
C511	C51	0.813800	0.184100	0.059600
H351	H35	0.725500	0.196400	0.071800
C521	C52	0.835300	0.137100	0.071300
H361	H36	0.764100	0.118200	0.096600
C531	C53	0.061600	0.146100	0.009000
H371	H37	0.145400	0.132700	0.988700
C541	C54	0.048000	0.192900	0.999600
H381	H38	0.121400	0.210700	0.973600
C551	C55	0.990200	0.068500	0.069300
H391	H39	0.903600	0.053400	0.088100
H401	H40	0.003800	0.056100	0.958700
C561	C56	0.130900	0.058300	0.232100
N221	N22	0.960400	0.118600	0.045800
N231	N23	0.788000	0.511040	0.849000
N241	N24	0.761500	0.540600	0.735400
N251	N25	0.733100	0.571200	0.624400
N261	N26	0.535100	0.499000	0.172800
N271	N27	0.577500	0.480100	0.318100
N281	N28	0.618500	0.463000	0.458600
O131	O13	0.961100	0.434330	0.011600
O141	O14	0.733300	0.427530	0.048200
O151	O15	0.142400	0.015810	0.273800
O161	O16	0.217700	0.089080	0.307700
Cu51	Cu5	0.000000	0.000000	0.500000
Cu61	Cu6	0.000000	0.500000	0.000000
