data_XEPBAX_clean_PM
_symmetry_space_group_name_H-M	'P1'
_cell_length_a	18.079000
_cell_length_b	16.435000
_cell_length_c	11.603000
_cell_angle_alpha	90.000000
_cell_angle_beta	90.000000
_cell_angle_gamma	90.000000
_symmetry_Int_Tables_number 1

loop_
_symmetry_equiv_pos_as_xyz
'x,y,z'

loop_
_atom_site_label
_atom_site_type_symbol
_atom_site_fract_x
_atom_site_fract_y
_atom_site_fract_z
V11	V1	0.302640	0.087120	0.628000
Li11	Li1	0.226200	0.102600	0.860600
O11	O1	0.303800	0.085900	0.420900
O21	O2	0.300150	0.979370	0.532600
O31	O3	0.300070	0.044150	0.751600
O41	O4	0.201760	0.705370	0.166500
O51	O5	0.408650	0.104130	0.598500
O61	O6	0.221400	0.073700	0.019400
O71	O7	0.191200	0.955700	0.940200
O81	O8	0.462200	0.144600	0.761700
O91	O9	0.224700	0.709900	0.356600
O101	O10	0.645800	0.368000	0.754500
O111	O11	0.696380	0.399300	0.585600
O121	O12	0.532100	0.362100	0.240900
O131	O13	0.468100	0.248600	0.231500
C11	C1	0.292800	0.012100	0.433800
C21	C2	0.267200	0.959900	0.334000
C31	C3	0.251300	0.999500	0.230500
H11	H1	0.258900	0.055300	0.224100
C41	C4	0.224000	0.955700	0.136400
C51	C5	0.213100	0.872700	0.147700
H21	H2	0.195100	0.843200	0.085300
C61	C6	0.228400	0.832400	0.250500
C71	C7	0.256600	0.877000	0.342800
H31	H3	0.268300	0.850500	0.411200
C81	C8	0.211400	0.998100	0.021800
C91	C9	0.480500	0.225600	0.472600
H41	H4	0.444700	0.194800	0.435100
C101	C10	0.647200	0.365500	0.647500
C111	C11	0.548100	0.259400	0.645100
H51	H5	0.556500	0.251600	0.723400
C121	C12	0.451800	0.150600	0.657800
C131	C13	0.217500	0.742500	0.260800
C141	C14	0.519600	0.285300	0.412200
C151	C15	0.495100	0.212300	0.588700
C161	C16	0.505100	0.299600	0.283600
C171	C17	0.588200	0.317400	0.586100
C181	C18	0.574100	0.329900	0.468700
H61	H6	0.601400	0.368400	0.428100
V21	V2	0.697360	0.912880	0.128000
Li21	Li2	0.773800	0.897400	0.360600
O141	O14	0.696200	0.914100	0.920900
O151	O15	0.699850	0.020630	0.032600
O161	O16	0.699930	0.955850	0.251600
O171	O17	0.798240	0.294630	0.666500
O181	O18	0.591350	0.895870	0.098500
O191	O19	0.778600	0.926300	0.519400
O201	O20	0.808800	0.044300	0.440200
O211	O21	0.537800	0.855400	0.261700
O221	O22	0.775300	0.290100	0.856600
O231	O23	0.354200	0.632000	0.254500
O241	O24	0.303620	0.600700	0.085600
O251	O25	0.467900	0.637900	0.740900
O261	O26	0.531900	0.751400	0.731500
C191	C19	0.707200	0.987900	0.933800
C201	C20	0.732800	0.040100	0.834000
C211	C21	0.748700	0.000500	0.730500
H71	H7	0.741100	0.944700	0.724100
C221	C22	0.776000	0.044300	0.636400
C231	C23	0.786900	0.127300	0.647700
H81	H8	0.804900	0.156800	0.585300
C241	C24	0.771600	0.167600	0.750500
C251	C25	0.743400	0.123000	0.842800
H91	H9	0.731700	0.149500	0.911200
C261	C26	0.788600	0.001900	0.521800
C271	C27	0.519500	0.774400	0.972600
H101	H10	0.555300	0.805200	0.935100
C281	C28	0.352800	0.634500	0.147500
C291	C29	0.451900	0.740600	0.145100
H111	H11	0.443500	0.748400	0.223400
C301	C30	0.548200	0.849400	0.157800
C311	C31	0.782500	0.257500	0.760800
C321	C32	0.480400	0.714700	0.912200
C331	C33	0.504900	0.787700	0.088700
C341	C34	0.494900	0.700400	0.783600
C351	C35	0.411800	0.682600	0.086100
C361	C36	0.425900	0.670100	0.968700
H121	H12	0.398600	0.631600	0.928100
V31	V3	0.802640	0.412880	0.628000
Li31	Li3	0.726200	0.397400	0.860600
O271	O27	0.803800	0.414100	0.420900
O281	O28	0.800150	0.520630	0.532600
O291	O29	0.800070	0.455850	0.751600
O301	O30	0.701760	0.794630	0.166500
O311	O31	0.908650	0.395870	0.598500
O321	O32	0.721400	0.426300	0.019400
O331	O33	0.691200	0.544300	0.940200
O341	O34	0.962200	0.355400	0.761700
O351	O35	0.724700	0.790100	0.356600
O361	O36	0.145800	0.132000	0.754500
O371	O37	0.196380	0.100700	0.585600
O381	O38	0.032100	0.137900	0.240900
O391	O39	0.968100	0.251400	0.231500
C371	C37	0.792800	0.487900	0.433800
C381	C38	0.767200	0.540100	0.334000
C391	C39	0.751300	0.500500	0.230500
H131	H13	0.758900	0.444700	0.224100
C401	C40	0.724000	0.544300	0.136400
C411	C41	0.713100	0.627300	0.147700
H141	H14	0.695100	0.656800	0.085300
C421	C42	0.728400	0.667600	0.250500
C431	C43	0.756600	0.623000	0.342800
H151	H15	0.768300	0.649500	0.411200
C441	C44	0.711400	0.501900	0.021800
C451	C45	0.980500	0.274400	0.472600
H161	H16	0.944700	0.305200	0.435100
C461	C46	0.147200	0.134500	0.647500
C471	C47	0.048100	0.240600	0.645100
H171	H17	0.056500	0.248400	0.723400
C481	C48	0.951800	0.349400	0.657800
C491	C49	0.717500	0.757500	0.260800
C501	C50	0.019600	0.214700	0.412200
C511	C51	0.995100	0.287700	0.588700
C521	C52	0.005100	0.200400	0.283600
C531	C53	0.088200	0.182600	0.586100
C541	C54	0.074100	0.170100	0.468700
H181	H18	0.101400	0.131600	0.428100
V41	V4	0.197360	0.587120	0.128000
Li41	Li4	0.273800	0.602600	0.360600
O401	O40	0.196200	0.585900	0.920900
O411	O41	0.199850	0.479370	0.032600
O421	O42	0.199930	0.544150	0.251600
O431	O43	0.298240	0.205370	0.666500
O441	O44	0.091350	0.604130	0.098500
O451	O45	0.278600	0.573700	0.519400
O461	O46	0.308800	0.455700	0.440200
O471	O47	0.037800	0.644600	0.261700
O481	O48	0.275300	0.209900	0.856600
O491	O49	0.854200	0.868000	0.254500
O501	O50	0.803620	0.899300	0.085600
O511	O51	0.967900	0.862100	0.740900
O521	O52	0.031900	0.748600	0.731500
C551	C55	0.207200	0.512100	0.933800
C561	C56	0.232800	0.459900	0.834000
C571	C57	0.248700	0.499500	0.730500
H191	H19	0.241100	0.555300	0.724100
C581	C58	0.276000	0.455700	0.636400
C591	C59	0.286900	0.372700	0.647700
H201	H20	0.304900	0.343200	0.585300
C601	C60	0.271600	0.332400	0.750500
C611	C61	0.243400	0.377000	0.842800
H211	H21	0.231700	0.350500	0.911200
C621	C62	0.288600	0.498100	0.521800
C631	C63	0.019500	0.725600	0.972600
H221	H22	0.055300	0.694800	0.935100
C641	C64	0.852800	0.865500	0.147500
C651	C65	0.951900	0.759400	0.145100
H231	H23	0.943500	0.751600	0.223400
C661	C66	0.048200	0.650600	0.157800
C671	C67	0.282500	0.242500	0.760800
C681	C68	0.980400	0.785300	0.912200
C691	C69	0.004900	0.712300	0.088700
C701	C70	0.994900	0.799600	0.783600
C711	C71	0.911800	0.817400	0.086100
C721	C72	0.925900	0.829900	0.968700
H241	H24	0.898600	0.868400	0.928100
