data_XEQGAC_clean_PM
_symmetry_space_group_name_H-M	'P1'
_cell_length_a	7.046500
_cell_length_b	15.646000
_cell_length_c	17.396000
_cell_angle_alpha	90.000000
_cell_angle_beta	90.000000
_cell_angle_gamma	90.000000
_symmetry_Int_Tables_number 1

loop_
_symmetry_equiv_pos_as_xyz
'x,y,z'

loop_
_atom_site_label
_atom_site_type_symbol
_atom_site_fract_x
_atom_site_fract_y
_atom_site_fract_z
P11	P1	0.253300	0.133220	0.400570
O11	O1	0.292400	0.146300	0.315100
O21	O2	0.434300	0.104300	0.441700
O31	O3	0.090200	0.071100	0.412600
O41	O4	0.359400	0.359900	0.460800
O51	O5	0.299100	0.324900	0.341700
C11	C1	0.289000	0.311600	0.414300
C21	C2	0.179400	0.233800	0.440300
H11	H1	0.046800	0.242400	0.427500
H21	H2	0.188300	0.230200	0.495800
P21	P2	0.246700	0.866780	0.400570
O61	O6	0.207600	0.853700	0.315100
O71	O7	0.065700	0.895700	0.441700
O81	O8	0.409800	0.928900	0.412600
O91	O9	0.140600	0.640100	0.460800
O101	O10	0.200900	0.675100	0.341700
C31	C3	0.211000	0.688400	0.414300
C41	C4	0.320600	0.766200	0.440300
H31	H3	0.453200	0.757600	0.427500
H41	H4	0.311700	0.769800	0.495800
P31	P3	0.246700	0.633220	0.099430
O111	O11	0.207600	0.646300	0.184900
O121	O12	0.065700	0.604300	0.058300
O131	O13	0.409800	0.571100	0.087400
O141	O14	0.140600	0.859900	0.039200
O151	O15	0.200900	0.824900	0.158300
C51	C5	0.211000	0.811600	0.085700
C61	C6	0.320600	0.733800	0.059700
H51	H5	0.453200	0.742400	0.072500
H61	H6	0.311700	0.730200	0.004200
P41	P4	0.253300	0.366780	0.099430
O161	O16	0.292400	0.353700	0.184900
O171	O17	0.434300	0.395700	0.058300
O181	O18	0.090200	0.428900	0.087400
O191	O19	0.359400	0.140100	0.039200
O201	O20	0.299100	0.175100	0.158300
C71	C7	0.289000	0.188400	0.085700
C81	C8	0.179400	0.266200	0.059700
H71	H7	0.046800	0.257600	0.072500
H81	H8	0.188300	0.269800	0.004200
P51	P5	0.746700	0.866780	0.599430
O211	O21	0.707600	0.853700	0.684900
O221	O22	0.565700	0.895700	0.558300
O231	O23	0.909800	0.928900	0.587400
O241	O24	0.640600	0.640100	0.539200
O251	O25	0.700900	0.675100	0.658300
C91	C9	0.711000	0.688400	0.585700
C101	C10	0.820600	0.766200	0.559700
H91	H9	0.953200	0.757600	0.572500
H101	H10	0.811700	0.769800	0.504200
P61	P6	0.753300	0.133220	0.599430
O261	O26	0.792400	0.146300	0.684900
O271	O27	0.934300	0.104300	0.558300
O281	O28	0.590200	0.071100	0.587400
O291	O29	0.859400	0.359900	0.539200
O301	O30	0.799100	0.324900	0.658300
C111	C11	0.789000	0.311600	0.585700
C121	C12	0.679400	0.233800	0.559700
H111	H11	0.546800	0.242400	0.572500
H121	H12	0.688300	0.230200	0.504200
P71	P7	0.753300	0.366780	0.900570
O311	O31	0.792400	0.353700	0.815100
O321	O32	0.934300	0.395700	0.941700
O331	O33	0.590200	0.428900	0.912600
O341	O34	0.859400	0.140100	0.960800
O351	O35	0.799100	0.175100	0.841700
C131	C13	0.789000	0.188400	0.914300
C141	C14	0.679400	0.266200	0.940300
H131	H13	0.546800	0.257600	0.927500
H141	H14	0.688300	0.269800	0.995800
P81	P8	0.746700	0.633220	0.900570
O361	O36	0.707600	0.646300	0.815100
O371	O37	0.565700	0.604300	0.941700
O381	O38	0.909800	0.571100	0.912600
O391	O39	0.640600	0.859900	0.960800
O401	O40	0.700900	0.824900	0.841700
C151	C15	0.711000	0.811600	0.914300
C161	C16	0.820600	0.733800	0.940300
H151	H15	0.953200	0.742400	0.927500
H161	H16	0.811700	0.730200	0.995800
V11	V1	0.246900	0.250000	0.250000
V21	V2	0.253100	0.750000	0.250000
V31	V3	0.753100	0.750000	0.750000
V41	V4	0.746900	0.250000	0.750000
V51	V5	0.500000	0.000000	0.500000
V61	V6	0.000000	0.000000	0.500000
V71	V7	0.000000	0.500000	0.000000
V81	V8	0.500000	0.500000	0.000000
O411	O41	0.750000	0.000000	0.458200
O421	O42	0.750000	0.500000	0.041800
O431	O43	0.250000	0.000000	0.541800
O441	O44	0.250000	0.500000	0.958200
