data_XESGOS_clean_PM
_symmetry_space_group_name_H-M	'P1'
_cell_length_a	8.555200
_cell_length_b	10.113300
_cell_length_c	16.702500
_cell_angle_alpha	90.000000
_cell_angle_beta	94.940000
_cell_angle_gamma	90.000000
_symmetry_Int_Tables_number 1

loop_
_symmetry_equiv_pos_as_xyz
'x,y,z'

loop_
_atom_site_label
_atom_site_type_symbol
_atom_site_fract_x
_atom_site_fract_y
_atom_site_fract_z
P11	P1	0.655620	0.267700	0.177950
P21	P2	0.473900	0.788160	0.083750
P31	P3	0.624840	0.268080	0.492670
P41	P4	0.843130	0.550250	0.322520
P51	P5	0.025300	0.030790	0.415880
P61	P6	0.875190	0.549580	0.008990
Al11	Al1	0.833200	0.257850	0.349870
Al21	Al2	0.980600	0.231700	0.548400
Al31	Al3	0.664400	0.558100	0.151130
Al41	Al4	0.479100	0.087000	0.048630
Al51	Al5	0.324800	0.076700	0.518860
Al61	Al6	0.824130	0.241150	0.019520
F11	F1	0.549500	0.503900	0.052000
F21	F2	0.197500	0.230100	0.530100
F31	F3	0.950300	0.316800	0.447420
F41	F4	0.693500	0.087600	0.030700
O11	O1	0.669900	0.231500	0.407300
O21	O2	0.787500	0.279100	0.120700
O31	O3	0.830800	0.582700	0.093800
O41	O4	0.717000	0.201900	0.257900
O51	O5	0.293600	0.772600	0.071300
O61	O6	0.204700	0.047800	0.425900
O71	O7	0.929900	0.404100	0.007200
O81	O8	0.759500	0.241400	0.556300
O91	O9	0.535500	0.701300	0.155600
O101	O10	0.738300	0.574900	0.943800
O111	O11	0.517000	0.184900	0.142300
O121	O12	0.515500	0.930600	0.105000
O131	O13	0.567500	0.413000	0.492100
O141	O14	0.549300	0.747600	0.007600
O151	O15	0.901700	0.407700	0.306300
O161	O16	0.981500	0.636000	0.357100
O171	O17	0.962500	0.120000	0.344500
O181	O18	0.598600	0.408600	0.193800
O191	O19	0.772000	0.612700	0.244980
O201	O20	0.489200	0.174200	0.509500
O211	O21	0.010800	0.636600	0.989400
O221	O22	0.983200	0.887400	0.393500
O231	O23	0.952400	0.073100	0.492000
O241	O24	0.714200	0.535000	0.381400
P71	P7	0.344380	0.767700	0.822050
P81	P8	0.526100	0.288160	0.916250
P91	P9	0.375160	0.768080	0.507330
P101	P10	0.156870	0.050250	0.677480
P111	P11	0.974700	0.530790	0.584120
P121	P12	0.124810	0.049580	0.991010
Al71	Al7	0.166800	0.757850	0.650130
Al81	Al8	0.019400	0.731700	0.451600
Al91	Al9	0.335600	0.058100	0.848870
Al101	Al10	0.520900	0.587000	0.951370
Al111	Al11	0.675200	0.576700	0.481140
Al121	Al12	0.175870	0.741150	0.980480
F51	F5	0.450500	0.003900	0.948000
F61	F6	0.802500	0.730100	0.469900
F71	F7	0.049700	0.816800	0.552580
F81	F8	0.306500	0.587600	0.969300
O251	O25	0.330100	0.731500	0.592700
O261	O26	0.212500	0.779100	0.879300
O271	O27	0.169200	0.082700	0.906200
O281	O28	0.283000	0.701900	0.742100
O291	O29	0.706400	0.272600	0.928700
O301	O30	0.795300	0.547800	0.574100
O311	O31	0.070100	0.904100	0.992800
O321	O32	0.240500	0.741400	0.443700
O331	O33	0.464500	0.201300	0.844400
O341	O34	0.261700	0.074900	0.056200
O351	O35	0.483000	0.684900	0.857700
O361	O36	0.484500	0.430600	0.895000
O371	O37	0.432500	0.913000	0.507900
O381	O38	0.450700	0.247600	0.992400
O391	O39	0.098300	0.907700	0.693700
O401	O40	0.018500	0.136000	0.642900
O411	O41	0.037500	0.620000	0.655500
O421	O42	0.401400	0.908600	0.806200
O431	O43	0.228000	0.112700	0.755020
O441	O44	0.510800	0.674200	0.490500
O451	O45	0.989200	0.136600	0.010600
O461	O46	0.016800	0.387400	0.606500
O471	O47	0.047600	0.573100	0.508000
O481	O48	0.285800	0.035000	0.618600
