data_XESKUD_clean_PM
_symmetry_space_group_name_H-M	'P1'
_cell_length_a	28.010300
_cell_length_b	28.010300
_cell_length_c	6.404400
_cell_angle_alpha	90.000000
_cell_angle_beta	90.000000
_cell_angle_gamma	120.000000
_symmetry_Int_Tables_number 1

loop_
_symmetry_equiv_pos_as_xyz
'x,y,z'

loop_
_atom_site_label
_atom_site_type_symbol
_atom_site_fract_x
_atom_site_fract_y
_atom_site_fract_z
Fe11	Fe1	0.302200	0.027800	0.711300
P11	P1	0.426280	0.040330	0.578600
O11	O1	0.477400	0.091000	0.517900
O21	O2	0.391600	0.056100	0.716400
O31	O3	0.389000	0.011800	0.396300
N11	N1	0.461910	0.018350	0.937000
C11	C1	0.445160	0.994580	0.720200
C21	C2	0.523920	0.058330	0.954400
C31	C3	0.446490	0.973380	0.101400
Fe21	Fe2	0.968870	0.361130	0.044630
P21	P2	0.092950	0.373660	0.911930
O41	O4	0.144070	0.424330	0.851230
O51	O5	0.058270	0.389430	0.049730
O61	O6	0.055670	0.345130	0.729630
N21	N2	0.128580	0.351680	0.270330
C41	C4	0.111830	0.327910	0.053530
C51	C5	0.190590	0.391660	0.287730
C61	C6	0.113160	0.306710	0.434730
Fe31	Fe3	0.635530	0.694470	0.377970
P31	P3	0.759610	0.707000	0.245270
O71	O7	0.810730	0.757670	0.184570
O81	O8	0.724930	0.722770	0.383070
O91	O9	0.722330	0.678470	0.062970
N31	N3	0.795240	0.685020	0.603670
C71	C7	0.778490	0.661250	0.386870
C81	C8	0.857250	0.725000	0.621070
C91	C9	0.779820	0.640050	0.768070
Fe41	Fe4	0.972200	0.274400	0.711300
P41	P4	0.959670	0.385950	0.578600
O101	O10	0.909000	0.386400	0.517900
O111	O11	0.943900	0.335500	0.716400
O121	O12	0.988200	0.377200	0.396300
N41	N4	0.981650	0.443560	0.937000
C101	C10	0.005420	0.450580	0.720200
C111	C11	0.941670	0.465590	0.954400
C121	C12	0.026620	0.473110	0.101400
Fe51	Fe5	0.638870	0.607730	0.044630
P51	P5	0.626340	0.719280	0.911930
O131	O13	0.575670	0.719730	0.851230
O141	O14	0.610570	0.668830	0.049730
O151	O15	0.654870	0.710530	0.729630
N51	N5	0.648320	0.776890	0.270330
C131	C13	0.672090	0.783910	0.053530
C141	C14	0.608340	0.798920	0.287730
C151	C15	0.693290	0.806440	0.434730
Fe61	Fe6	0.305530	0.941070	0.377970
P61	P6	0.293000	0.052620	0.245270
O161	O16	0.242330	0.053070	0.184570
O171	O17	0.277230	0.002170	0.383070
O181	O18	0.321530	0.043870	0.062970
N61	N6	0.314980	0.110230	0.603670
C161	C16	0.338750	0.117250	0.386870
C171	C17	0.275000	0.132260	0.621070
C181	C18	0.359950	0.139780	0.768070
Fe71	Fe7	0.725600	0.697800	0.711300
P71	P7	0.614050	0.573720	0.578600
O191	O19	0.613600	0.522600	0.517900
O201	O20	0.664500	0.608400	0.716400
O211	O21	0.622800	0.611000	0.396300
N71	N7	0.556440	0.538090	0.937000
C191	C19	0.549420	0.554840	0.720200
C201	C20	0.534410	0.476080	0.954400
C211	C21	0.526890	0.553510	0.101400
Fe81	Fe8	0.392270	0.031130	0.044630
P81	P8	0.280720	0.907050	0.911930
O221	O22	0.280270	0.855930	0.851230
O231	O23	0.331170	0.941730	0.049730
O241	O24	0.289470	0.944330	0.729630
N81	N8	0.223110	0.871420	0.270330
C221	C22	0.216090	0.888170	0.053530
C231	C23	0.201080	0.809410	0.287730
C241	C24	0.193560	0.886840	0.434730
Fe91	Fe9	0.058930	0.364470	0.377970
P91	P9	0.947380	0.240390	0.245270
O251	O25	0.946930	0.189270	0.184570
O261	O26	0.997830	0.275070	0.383070
O271	O27	0.956130	0.277670	0.062970
N91	N9	0.889770	0.204760	0.603670
C251	C25	0.882750	0.221510	0.386870
C261	C26	0.867740	0.142750	0.621070
C271	C27	0.860220	0.220180	0.768070
Fe101	Fe10	0.697800	0.972200	0.288700
P101	P10	0.573720	0.959670	0.421400
O281	O28	0.522600	0.909000	0.482100
O291	O29	0.608400	0.943900	0.283600
O301	O30	0.611000	0.988200	0.603700
N101	N10	0.538090	0.981650	0.063000
C281	C28	0.554840	0.005420	0.279800
C291	C29	0.476080	0.941670	0.045600
C301	C30	0.553510	0.026620	0.898600
Fe111	Fe11	0.364470	0.305530	0.622030
P111	P11	0.240390	0.293000	0.754730
O311	O31	0.189270	0.242330	0.815430
O321	O32	0.275070	0.277230	0.616930
O331	O33	0.277670	0.321530	0.937030
N111	N11	0.204760	0.314980	0.396330
C311	C31	0.221510	0.338750	0.613130
C321	C32	0.142750	0.275000	0.378930
C331	C33	0.220180	0.359950	0.231930
Fe121	Fe12	0.031130	0.638870	0.955370
P121	P12	0.907050	0.626340	0.088070
O341	O34	0.855930	0.575670	0.148770
O351	O35	0.941730	0.610570	0.950270
O361	O36	0.944330	0.654870	0.270370
N121	N12	0.871420	0.648320	0.729670
C341	C34	0.888170	0.672090	0.946470
C351	C35	0.809410	0.608340	0.712270
C361	C36	0.886840	0.693290	0.565270
Fe131	Fe13	0.027800	0.725600	0.288700
P131	P13	0.040330	0.614050	0.421400
O371	O37	0.091000	0.613600	0.482100
O381	O38	0.056100	0.664500	0.283600
O391	O39	0.011800	0.622800	0.603700
N131	N13	0.018350	0.556440	0.063000
C371	C37	0.994580	0.549420	0.279800
C381	C38	0.058330	0.534410	0.045600
C391	C39	0.973380	0.526890	0.898600
Fe141	Fe14	0.694470	0.058930	0.622030
P141	P14	0.707000	0.947380	0.754730
O401	O40	0.757670	0.946930	0.815430
O411	O41	0.722770	0.997830	0.616930
O421	O42	0.678470	0.956130	0.937030
N141	N14	0.685020	0.889770	0.396330
C401	C40	0.661250	0.882750	0.613130
C411	C41	0.725000	0.867740	0.378930
C421	C42	0.640050	0.860220	0.231930
Fe151	Fe15	0.361130	0.392270	0.955370
P151	P15	0.373660	0.280720	0.088070
O431	O43	0.424330	0.280270	0.148770
O441	O44	0.389430	0.331170	0.950270
O451	O45	0.345130	0.289470	0.270370
N151	N15	0.351680	0.223110	0.729670
C431	C43	0.327910	0.216090	0.946470
C441	C44	0.391660	0.201080	0.712270
C451	C45	0.306710	0.193560	0.565270
Fe161	Fe16	0.274400	0.302200	0.288700
P161	P16	0.385950	0.426280	0.421400
O461	O46	0.386400	0.477400	0.482100
O471	O47	0.335500	0.391600	0.283600
O481	O48	0.377200	0.389000	0.603700
N161	N16	0.443560	0.461910	0.063000
C461	C46	0.450580	0.445160	0.279800
C471	C47	0.465590	0.523920	0.045600
C481	C48	0.473110	0.446490	0.898600
Fe171	Fe17	0.941070	0.635530	0.622030
P171	P17	0.052620	0.759610	0.754730
O491	O49	0.053070	0.810730	0.815430
O501	O50	0.002170	0.724930	0.616930
O511	O51	0.043870	0.722330	0.937030
N171	N17	0.110230	0.795240	0.396330
C491	C49	0.117250	0.778490	0.613130
C501	C50	0.132260	0.857250	0.378930
C511	C51	0.139780	0.779820	0.231930
Fe181	Fe18	0.607730	0.968870	0.955370
P181	P18	0.719280	0.092950	0.088070
O521	O52	0.719730	0.144070	0.148770
O531	O53	0.668830	0.058270	0.950270
O541	O54	0.710530	0.055670	0.270370
N181	N18	0.776890	0.128580	0.729670
C521	C52	0.783910	0.111830	0.946470
C531	C53	0.798920	0.190590	0.712270
C541	C54	0.806440	0.113160	0.565270
