data_XESKIR_clean_h_PM
_symmetry_space_group_name_H-M	'P1'
_cell_length_a	6.426500
_cell_length_b	16.639900
_cell_length_c	16.639900
_cell_angle_alpha	61.631500
_cell_angle_beta	82.603400
_cell_angle_gamma	97.396600
_symmetry_Int_Tables_number 1

loop_
_symmetry_equiv_pos_as_xyz
'x,y,z'

loop_
_atom_site_label
_atom_site_type_symbol
_atom_site_fract_x
_atom_site_fract_y
_atom_site_fract_z
Mn11	Mn1	0.526490	0.244140	0.421570
Mn21	Mn2	0.948060	0.421570	0.334290
Mn31	Mn3	0.282350	0.334290	0.244140
Mn41	Mn4	0.473510	0.755860	0.578430
Mn51	Mn5	0.051940	0.578430	0.665710
Mn61	Mn6	0.717650	0.665710	0.755860
P11	P1	0.782760	0.351560	0.192270
P21	P2	0.975030	0.192270	0.456170
P31	P3	0.431200	0.456170	0.351560
P41	P4	0.217240	0.648440	0.807730
P51	P5	0.024970	0.807730	0.543830
P61	P6	0.568800	0.543830	0.648440
C11	C1	0.700710	0.454960	0.104090
C21	C2	0.447530	0.560360	0.036570
C31	C3	0.392410	0.402030	0.056200
C41	C4	0.804800	0.104090	0.440950
C51	C5	0.484100	0.036570	0.403070
C61	C6	0.448610	0.056200	0.541770
C71	C7	0.245750	0.440950	0.454960
C81	C8	0.887170	0.403070	0.560360
C91	C9	0.990380	0.541770	0.402030
C101	C10	0.299290	0.545040	0.895910
C111	C11	0.552470	0.439640	0.963430
C121	C12	0.607590	0.597970	0.943800
C131	C13	0.195200	0.895910	0.559050
C141	C14	0.515900	0.963430	0.596930
C151	C15	0.551390	0.943800	0.458230
C161	C16	0.754250	0.559050	0.545040
C171	C17	0.112830	0.596930	0.439640
C181	C18	0.009620	0.458230	0.597970
N11	N1	0.469070	0.460100	0.099870
N21	N2	0.568940	0.099870	0.440030
N31	N3	0.008970	0.440030	0.460100
N41	N4	0.530930	0.539900	0.900130
N51	N5	0.431060	0.900130	0.559970
N61	N6	0.991030	0.559970	0.539900
O11	O1	0.848280	0.294950	0.149010
O21	O2	0.587240	0.292340	0.268920
O31	O3	0.953850	0.369630	0.238720
O41	O4	0.997290	0.149010	0.556040
O51	O5	0.856160	0.268920	0.438740
O61	O6	0.192570	0.238720	0.391650
O71	O7	0.553330	0.556040	0.294950
O81	O8	0.294900	0.438740	0.292340
O91	O9	0.584220	0.391650	0.369630
O101	O10	0.151720	0.705050	0.850990
O111	O11	0.412760	0.707660	0.731080
O121	O12	0.046150	0.630370	0.761280
O131	O13	0.002710	0.850990	0.443960
O141	O14	0.143840	0.731080	0.561260
O151	O15	0.807430	0.761280	0.608350
O161	O16	0.446670	0.443960	0.705050
O171	O17	0.705100	0.561260	0.707660
O181	O18	0.415780	0.608350	0.630370
H11	H1	0.277030	0.560480	0.024330
H21	H2	0.488350	0.605900	0.068720
H31	H3	0.391230	0.325220	0.104520
H41	H4	0.224970	0.409920	0.042360
H51	H5	0.301370	0.024330	0.415190
H61	H6	0.557070	0.068720	0.325370
H71	H7	0.495750	0.104520	0.570270
H81	H8	0.267330	0.042360	0.547720
H91	H9	0.716560	0.415190	0.560480
H101	H10	0.882450	0.325370	0.605900
H111	H11	0.066020	0.570270	0.325220
H121	H12	0.815050	0.547720	0.409920
H131	H13	0.511250	0.395140	0.930230
H141	H14	0.722170	0.438230	0.976460
H151	H15	0.775100	0.589330	0.957110
H161	H16	0.609610	0.675060	0.896350
H171	H17	0.441480	0.930230	0.674630
H181	H18	0.698630	0.976460	0.585310
H191	H19	0.732220	0.957110	0.453550
H201	H20	0.505960	0.896350	0.428590
H211	H21	0.116110	0.674630	0.395140
H221	H22	0.283950	0.585310	0.438230
H231	H23	0.185770	0.453550	0.589330
H241	H24	0.934550	0.428590	0.675060
