data_XESKEN_SL_PM
_symmetry_space_group_name_H-M	'P1'
_cell_length_a	28.245300
_cell_length_b	28.245300
_cell_length_c	6.220200
_cell_angle_alpha	90.000000
_cell_angle_beta	90.000000
_cell_angle_gamma	120.000000
_symmetry_Int_Tables_number 1

loop_
_symmetry_equiv_pos_as_xyz
'x,y,z'

loop_
_atom_site_label
_atom_site_type_symbol
_atom_site_fract_x
_atom_site_fract_y
_atom_site_fract_z
Mg11	Mg1	0.056940	0.692570	0.400630
P21	P2	0.091440	0.717680	0.920030
C31	C3	0.110650	0.784210	0.050330
C41	C4	0.113470	0.825930	0.408630
C51	C5	0.174170	0.785430	0.325230
N61	N6	0.118460	0.781520	0.289430
O71	O7	0.138840	0.709840	0.861630
O81	O8	0.054270	0.671030	0.069530
O91	O9	0.059620	0.713830	0.718730
H101	H10	0.150340	0.817610	0.976570
H111	H11	0.072520	0.822590	0.368430
H121	H12	0.115990	0.820590	0.589160
H131	H13	0.178820	0.778690	0.502880
H141	H14	0.176060	0.752450	0.226280
H151	H15	0.615720	0.743580	0.643950
Mg161	Mg16	0.723600	0.025910	0.733970
P171	P17	0.758100	0.051020	0.253370
C181	C18	0.777310	0.117550	0.383670
C191	C19	0.780130	0.159270	0.741970
C201	C20	0.840830	0.118770	0.658570
N211	N21	0.785120	0.114860	0.622770
O221	O22	0.805500	0.043180	0.194970
O231	O23	0.720930	0.004370	0.402870
O241	O24	0.726280	0.047170	0.052070
H251	H25	0.817000	0.150940	0.309910
H261	H26	0.739190	0.155920	0.701760
H271	H27	0.782650	0.153920	0.922500
H281	H28	0.845480	0.112030	0.836220
H291	H29	0.842730	0.085780	0.559620
H301	H30	0.282390	0.076910	0.977280
Mg311	Mg31	0.390270	0.359240	0.067300
P321	P32	0.424770	0.384350	0.586700
C331	C33	0.443980	0.450880	0.717000
C341	C34	0.446800	0.492600	0.075300
C351	C35	0.507500	0.452100	0.991900
N361	N36	0.451790	0.448190	0.956100
O371	O37	0.472170	0.376510	0.528300
O381	O38	0.387600	0.337700	0.736200
O391	O39	0.392950	0.380500	0.385400
H401	H40	0.483670	0.484280	0.643240
H411	H41	0.405860	0.489260	0.035100
H421	H42	0.449320	0.487250	0.255830
H431	H43	0.512150	0.445360	0.169550
H441	H44	0.509400	0.419120	0.892950
H451	H45	0.949060	0.410240	0.310610
Mg461	Mg46	0.307430	0.364360	0.400630
P471	P47	0.282320	0.373750	0.920030
C481	C48	0.215790	0.326430	0.050330
C491	C49	0.174070	0.287530	0.408630
C501	C50	0.214570	0.388730	0.325230
N511	N51	0.218480	0.336930	0.289430
O521	O52	0.290160	0.428990	0.861630
O531	O53	0.328970	0.383230	0.069530
O541	O54	0.286170	0.345780	0.718730
H551	H55	0.182390	0.332730	0.976570
H561	H56	0.177410	0.249930	0.368430
H571	H57	0.179410	0.295400	0.589160
H581	H58	0.221310	0.400120	0.502880
H591	H59	0.247550	0.423610	0.226280
H601	H60	0.256420	0.872150	0.643950
Mg611	Mg61	0.974090	0.697700	0.733970
P621	P62	0.948980	0.707090	0.253370
C631	C63	0.882450	0.659770	0.383670
C641	C64	0.840730	0.620870	0.741970
C651	C65	0.881230	0.722070	0.658570
N661	N66	0.885140	0.670270	0.622770
O671	O67	0.956820	0.762330	0.194970
O681	O68	0.995630	0.716570	0.402870
O691	O69	0.952830	0.679120	0.052070
H701	H70	0.849060	0.666060	0.309910
H711	H71	0.844080	0.583260	0.701760
H721	H72	0.846080	0.628730	0.922500
H731	H73	0.887970	0.733460	0.836220
H741	H74	0.914220	0.756950	0.559620
H751	H75	0.923090	0.205480	0.977280
Mg761	Mg76	0.640760	0.031030	0.067300
P771	P77	0.615650	0.040420	0.586700
C781	C78	0.549120	0.993100	0.717000
C791	C79	0.507400	0.954200	0.075300
C801	C80	0.547900	0.055400	0.991900
N811	N81	0.551810	0.003600	0.956100
O821	O82	0.623490	0.095660	0.528300
O831	O83	0.662300	0.049900	0.736200
O841	O84	0.619500	0.012450	0.385400
H851	H85	0.515720	0.999400	0.643240
H861	H86	0.510740	0.916600	0.035100
H871	H87	0.512750	0.962070	0.255830
H881	H88	0.554640	0.066790	0.169550
H891	H89	0.580880	0.090280	0.892950
H901	H90	0.589760	0.538810	0.310610
Mg911	Mg91	0.635640	0.943060	0.400630
P921	P92	0.626250	0.908560	0.920030
C931	C93	0.673570	0.889350	0.050330
C941	C94	0.712470	0.886530	0.408630
C951	C95	0.611270	0.825830	0.325230
N961	N96	0.663070	0.881540	0.289430
O971	O97	0.571010	0.861160	0.861630
O981	O98	0.616770	0.945730	0.069530
O991	O99	0.654220	0.940380	0.718730
H1001	H100	0.667270	0.849660	0.976570
H1011	H101	0.750070	0.927480	0.368430
H1021	H102	0.704600	0.884010	0.589160
H1031	H103	0.599880	0.821180	0.502880
H1041	H104	0.576390	0.823940	0.226280
H1051	H105	0.127850	0.384280	0.643950
Mg1061	Mg106	0.302300	0.276400	0.733970
P1071	P107	0.292910	0.241900	0.253370
C1081	C108	0.340230	0.222690	0.383670
C1091	C109	0.379130	0.219870	0.741970
C1101	C110	0.277930	0.159170	0.658570
N1111	N111	0.329730	0.214880	0.622770
O1121	O112	0.237670	0.194500	0.194970
O1131	O113	0.283430	0.279070	0.402870
O1141	O114	0.320880	0.273720	0.052070
H1151	H115	0.333940	0.183000	0.309910
H1161	H116	0.416740	0.260810	0.701760
H1171	H117	0.371270	0.217350	0.922500
H1181	H118	0.266540	0.154520	0.836220
H1191	H119	0.243050	0.157270	0.559620
H1201	H120	0.794520	0.717610	0.977280
Mg1211	Mg121	0.968970	0.609730	0.067300
P1221	P122	0.959580	0.575230	0.586700
C1231	C123	0.006900	0.556020	0.717000
C1241	C124	0.045800	0.553200	0.075300
C1251	C125	0.944600	0.492500	0.991900
N1261	N126	0.996400	0.548210	0.956100
O1271	O127	0.904340	0.527830	0.528300
O1281	O128	0.950100	0.612400	0.736200
O1291	O129	0.987550	0.607050	0.385400
H1301	H130	0.000600	0.516330	0.643240
H1311	H131	0.083400	0.594140	0.035100
H1321	H132	0.037930	0.550680	0.255830
H1331	H133	0.933210	0.487850	0.169550
H1341	H134	0.909720	0.490600	0.892950
H1351	H135	0.461190	0.050940	0.310610
Mg1361	Mg136	0.943060	0.307430	0.599370
P1371	P137	0.908560	0.282320	0.079970
C1381	C138	0.889350	0.215790	0.949670
C1391	C139	0.886530	0.174070	0.591370
C1401	C140	0.825830	0.214570	0.674770
N1411	N141	0.881540	0.218480	0.710570
O1421	O142	0.861160	0.290160	0.138370
O1431	O143	0.945730	0.328970	0.930470
O1441	O144	0.940380	0.286170	0.281270
H1451	H145	0.849660	0.182390	0.023430
H1461	H146	0.927480	0.177410	0.631570
H1471	H147	0.884010	0.179410	0.410840
H1481	H148	0.821180	0.221310	0.497120
H1491	H149	0.823940	0.247550	0.773720
H1501	H150	0.384280	0.256420	0.356050
Mg1511	Mg151	0.609730	0.640760	0.932700
P1521	P152	0.575230	0.615650	0.413300
C1531	C153	0.556020	0.549120	0.283000
C1541	C154	0.553200	0.507400	0.924700
C1551	C155	0.492500	0.547900	0.008100
N1561	N156	0.548210	0.551810	0.043900
O1571	O157	0.527830	0.623490	0.471700
O1581	O158	0.612400	0.662300	0.263800
O1591	O159	0.607050	0.619500	0.614600
H1601	H160	0.516330	0.515720	0.356760
H1611	H161	0.594140	0.510740	0.964900
H1621	H162	0.550680	0.512750	0.744170
H1631	H163	0.487850	0.554640	0.830450
H1641	H164	0.490600	0.580880	0.107050
H1651	H165	0.050940	0.589760	0.689390
Mg1661	Mg166	0.276400	0.974090	0.266030
P1671	P167	0.241900	0.948980	0.746630
C1681	C168	0.222690	0.882450	0.616330
C1691	C169	0.219870	0.840730	0.258030
C1701	C170	0.159170	0.881230	0.341430
N1711	N171	0.214880	0.885140	0.377230
O1721	O172	0.194500	0.956820	0.805030
O1731	O173	0.279070	0.995630	0.597130
O1741	O174	0.273720	0.952830	0.947930
H1751	H175	0.183000	0.849060	0.690090
H1761	H176	0.260810	0.844080	0.298240
H1771	H177	0.217350	0.846080	0.077500
H1781	H178	0.154520	0.887970	0.163780
H1791	H179	0.157270	0.914220	0.440380
H1801	H180	0.717610	0.923090	0.022720
Mg1811	Mg181	0.692570	0.635640	0.599370
P1821	P182	0.717680	0.626250	0.079970
C1831	C183	0.784210	0.673570	0.949670
C1841	C184	0.825930	0.712470	0.591370
C1851	C185	0.785430	0.611270	0.674770
N1861	N186	0.781520	0.663070	0.710570
O1871	O187	0.709840	0.571010	0.138370
O1881	O188	0.671030	0.616770	0.930470
O1891	O189	0.713830	0.654220	0.281270
H1901	H190	0.817610	0.667270	0.023430
H1911	H191	0.822590	0.750070	0.631570
H1921	H192	0.820590	0.704600	0.410840
H1931	H193	0.778690	0.599880	0.497120
H1941	H194	0.752450	0.576390	0.773720
H1951	H195	0.743580	0.127850	0.356050
Mg1961	Mg196	0.359240	0.968970	0.932700
P1971	P197	0.384350	0.959580	0.413300
C1981	C198	0.450880	0.006900	0.283000
C1991	C199	0.492600	0.045800	0.924700
C2001	C200	0.452100	0.944600	0.008100
N2011	N201	0.448190	0.996400	0.043900
O2021	O202	0.376510	0.904340	0.471700
O2031	O203	0.337700	0.950100	0.263800
O2041	O204	0.380500	0.987550	0.614600
H2051	H205	0.484280	0.000600	0.356760
H2061	H206	0.489260	0.083400	0.964900
H2071	H207	0.487250	0.037930	0.744170
H2081	H208	0.445360	0.933210	0.830450
H2091	H209	0.419120	0.909720	0.107050
H2101	H210	0.410240	0.461190	0.689390
Mg2111	Mg211	0.025910	0.302300	0.266030
P2121	P212	0.051020	0.292910	0.746630
C2131	C213	0.117550	0.340230	0.616330
C2141	C214	0.159270	0.379130	0.258030
C2151	C215	0.118770	0.277930	0.341430
N2161	N216	0.114860	0.329730	0.377230
O2171	O217	0.043180	0.237670	0.805030
O2181	O218	0.004370	0.283430	0.597130
O2191	O219	0.047170	0.320880	0.947930
H2201	H220	0.150940	0.333940	0.690090
H2211	H221	0.155920	0.416740	0.298240
H2221	H222	0.153920	0.371270	0.077500
H2231	H223	0.112030	0.266540	0.163780
H2241	H224	0.085780	0.243050	0.440380
H2251	H225	0.076910	0.794520	0.022720
Mg2261	Mg226	0.364360	0.056940	0.599370
P2271	P227	0.373750	0.091440	0.079970
C2281	C228	0.326430	0.110650	0.949670
C2291	C229	0.287530	0.113470	0.591370
C2301	C230	0.388730	0.174170	0.674770
N2311	N231	0.336930	0.118460	0.710570
O2321	O232	0.428990	0.138840	0.138370
O2331	O233	0.383230	0.054270	0.930470
O2341	O234	0.345780	0.059620	0.281270
H2351	H235	0.332730	0.150340	0.023430
H2361	H236	0.249930	0.072520	0.631570
H2371	H237	0.295400	0.115990	0.410840
H2381	H238	0.400120	0.178820	0.497120
H2391	H239	0.423610	0.176060	0.773720
H2401	H240	0.872150	0.615720	0.356050
Mg2411	Mg241	0.031030	0.390270	0.932700
P2421	P242	0.040420	0.424770	0.413300
C2431	C243	0.993100	0.443980	0.283000
C2441	C244	0.954200	0.446800	0.924700
C2451	C245	0.055400	0.507500	0.008100
N2461	N246	0.003600	0.451790	0.043900
O2471	O247	0.095660	0.472170	0.471700
O2481	O248	0.049900	0.387600	0.263800
O2491	O249	0.012450	0.392950	0.614600
H2501	H250	0.999400	0.483670	0.356760
H2511	H251	0.916600	0.405860	0.964900
H2521	H252	0.962070	0.449320	0.744170
H2531	H253	0.066790	0.512150	0.830450
H2541	H254	0.090280	0.509400	0.107050
H2551	H255	0.538810	0.949060	0.689390
Mg2561	Mg256	0.697700	0.723600	0.266030
P2571	P257	0.707090	0.758100	0.746630
C2581	C258	0.659770	0.777310	0.616330
C2591	C259	0.620870	0.780130	0.258030
C2601	C260	0.722070	0.840830	0.341430
N2611	N261	0.670270	0.785120	0.377230
O2621	O262	0.762330	0.805500	0.805030
O2631	O263	0.716570	0.720930	0.597130
O2641	O264	0.679120	0.726280	0.947930
H2651	H265	0.666060	0.817000	0.690090
H2661	H266	0.583260	0.739190	0.298240
H2671	H267	0.628730	0.782650	0.077500
H2681	H268	0.733460	0.845480	0.163780
H2691	H269	0.756950	0.842730	0.440380
H2701	H270	0.205480	0.282390	0.022720
