data_XEWRUO_clean_PM
_symmetry_space_group_name_H-M	'P1'
_cell_length_a	9.941100
_cell_length_b	9.941100
_cell_length_c	11.210000
_cell_angle_alpha	63.678600
_cell_angle_beta	63.678600
_cell_angle_gamma	89.999900
_symmetry_Int_Tables_number 1

loop_
_symmetry_equiv_pos_as_xyz
'x,y,z'

loop_
_atom_site_label
_atom_site_type_symbol
_atom_site_fract_x
_atom_site_fract_y
_atom_site_fract_z
Cd11	Cd1	0.864160	0.614160	0.771680
Cd21	Cd2	0.614160	0.864160	0.271680
Cd31	Cd3	0.135840	0.385840	0.228320
Cd41	Cd4	0.385840	0.135840	0.728320
C11	C1	0.613000	0.558600	0.558200
C21	C2	0.328800	0.883200	0.558200
C31	C3	0.558600	0.328800	0.058200
C41	C4	0.883200	0.613000	0.058200
C51	C5	0.387000	0.441400	0.441800
C61	C6	0.671200	0.116800	0.441800
C71	C7	0.441400	0.671200	0.941800
C81	C8	0.116800	0.387000	0.941800
N11	N1	0.753680	0.752520	0.514840
N21	N2	0.747910	0.625660	0.630600
N31	N3	0.660050	0.502060	0.660340
N41	N4	0.667750	0.711160	0.467700
N51	N5	0.517510	0.462700	0.551320
N61	N6	0.231480	0.732640	0.514840
N71	N7	0.121490	0.743740	0.630600
N81	N8	0.179610	0.837600	0.660340
N91	N9	0.364550	0.821140	0.467700
N101	N10	0.431170	0.985980	0.551320
N111	N11	0.752520	0.231480	0.014840
N121	N12	0.625660	0.121490	0.130600
N131	N13	0.502060	0.179610	0.160340
N141	N14	0.711160	0.364550	0.967700
N151	N15	0.462700	0.431170	0.051320
N161	N16	0.732640	0.753680	0.014840
N171	N17	0.743740	0.747910	0.130600
N181	N18	0.837600	0.660050	0.160340
N191	N19	0.821140	0.667750	0.967700
N201	N20	0.985980	0.517510	0.051320
N211	N21	0.246320	0.247480	0.485160
N221	N22	0.252090	0.374340	0.369400
N231	N23	0.339950	0.497940	0.339660
N241	N24	0.332250	0.288840	0.532300
N251	N25	0.482490	0.537300	0.448680
N261	N26	0.768520	0.267360	0.485160
N271	N27	0.878510	0.256260	0.369400
N281	N28	0.820390	0.162400	0.339660
N291	N29	0.635450	0.178860	0.532300
N301	N30	0.568830	0.014020	0.448680
N311	N31	0.247480	0.768520	0.985160
N321	N32	0.374340	0.878510	0.869400
N331	N33	0.497940	0.820390	0.839660
N341	N34	0.288840	0.635450	0.032300
N351	N35	0.537300	0.568830	0.948680
N361	N36	0.267360	0.246320	0.985160
N371	N37	0.256260	0.252090	0.869400
N381	N38	0.162400	0.339950	0.839660
N391	N39	0.178860	0.332250	0.032300
N401	N40	0.014020	0.482490	0.948680
