data_XEXLET_clean_PM
_symmetry_space_group_name_H-M	'P1'
_cell_length_a	4.973800
_cell_length_b	24.836000
_cell_length_c	20.663000
_cell_angle_alpha	90.000000
_cell_angle_beta	95.903000
_cell_angle_gamma	90.000000
_symmetry_Int_Tables_number 1

loop_
_symmetry_equiv_pos_as_xyz
'x,y,z'

loop_
_atom_site_label
_atom_site_type_symbol
_atom_site_fract_x
_atom_site_fract_y
_atom_site_fract_z
Cd11	Cd1	0.322800	0.957640	0.440510
O11	O1	0.943200	0.982570	0.378130
O21	O2	0.502600	0.001550	0.362110
O31	O3	0.282200	0.041050	0.487950
O41	O4	0.871400	0.078720	0.475950
O51	O5	0.763700	0.197060	0.136600
O61	O6	0.483100	0.257220	0.269700
N11	N1	0.127800	0.373730	0.101300
C11	C1	0.960000	0.366600	0.146400
H11	H1	0.843400	0.395300	0.155400
C21	C2	0.947100	0.319300	0.181000
H21	H2	0.824400	0.315600	0.213000
C31	C3	0.113900	0.278100	0.168200
C41	C4	0.277300	0.283000	0.119900
H31	H3	0.386500	0.254000	0.108100
C51	C5	0.278500	0.332400	0.088300
H41	H4	0.395900	0.336500	0.055100
N21	N2	0.109400	0.229190	0.205900
C61	C6	0.907700	0.191300	0.187300
C71	C7	0.881200	0.146000	0.232800
C81	C8	0.047600	0.142630	0.292300
C91	C9	0.257800	0.180800	0.306700
C101	C10	0.299300	0.224400	0.261100
C111	C11	0.680800	0.109000	0.217300
H51	H5	0.568900	0.111800	0.177300
C121	C12	0.641000	0.066900	0.260600
H61	H6	0.502300	0.041200	0.249400
C131	C13	0.799900	0.062000	0.319600
C141	C14	0.004900	0.101500	0.338400
C151	C15	0.166500	0.102810	0.399700
C161	C16	0.372400	0.139900	0.411300
H71	H7	0.482100	0.139500	0.451800
C171	C17	0.421400	0.178300	0.364100
H81	H8	0.568600	0.202600	0.372000
C181	C18	0.747200	0.011950	0.357600
C191	C19	0.101200	0.070730	0.458000
Cd21	Cd2	0.177200	0.457640	0.059490
O71	O7	0.556800	0.482570	0.121870
O81	O8	0.997400	0.501550	0.137890
O91	O9	0.217800	0.541050	0.012050
O101	O10	0.628600	0.578720	0.024050
O111	O11	0.736300	0.697060	0.363400
O121	O12	0.016900	0.757220	0.230300
N31	N3	0.372200	0.873730	0.398700
C201	C20	0.540000	0.866600	0.353600
H91	H9	0.656600	0.895300	0.344600
C211	C21	0.552900	0.819300	0.319000
H101	H10	0.675600	0.815600	0.287000
C221	C22	0.386100	0.778100	0.331800
C231	C23	0.222700	0.783000	0.380100
H111	H11	0.113500	0.754000	0.391900
C241	C24	0.221500	0.832400	0.411700
H121	H12	0.104100	0.836500	0.444900
N41	N4	0.390600	0.729190	0.294100
C251	C25	0.592300	0.691300	0.312700
C261	C26	0.618800	0.646000	0.267200
C271	C27	0.452400	0.642630	0.207700
C281	C28	0.242200	0.680800	0.193300
C291	C29	0.200700	0.724400	0.238900
C301	C30	0.819200	0.609000	0.282700
H131	H13	0.931100	0.611800	0.322700
C311	C31	0.859000	0.566900	0.239400
H141	H14	0.997700	0.541200	0.250600
C321	C32	0.700100	0.562000	0.180400
C331	C33	0.495100	0.601500	0.161600
C341	C34	0.333500	0.602810	0.100300
C351	C35	0.127600	0.639900	0.088700
H151	H15	0.017900	0.639500	0.048200
C361	C36	0.078600	0.678300	0.135900
H161	H16	0.931400	0.702600	0.128000
C371	C37	0.752800	0.511950	0.142400
C381	C38	0.398800	0.570730	0.042000
Cd31	Cd3	0.677200	0.042360	0.559490
O131	O13	0.056800	0.017430	0.621870
O141	O14	0.497400	0.998450	0.637890
O151	O15	0.717800	0.958950	0.512050
O161	O16	0.128600	0.921280	0.524050
O171	O17	0.236300	0.802940	0.863400
O181	O18	0.516900	0.742780	0.730300
N51	N5	0.872200	0.626270	0.898700
C391	C39	0.040000	0.633400	0.853600
H171	H17	0.156600	0.604700	0.844600
C401	C40	0.052900	0.680700	0.819000
H181	H18	0.175600	0.684400	0.787000
C411	C41	0.886100	0.721900	0.831800
C421	C42	0.722700	0.717000	0.880100
H191	H19	0.613500	0.746000	0.891900
C431	C43	0.721500	0.667600	0.911700
H201	H20	0.604100	0.663500	0.944900
N61	N6	0.890600	0.770810	0.794100
C441	C44	0.092300	0.808700	0.812700
C451	C45	0.118800	0.854000	0.767200
C461	C46	0.952400	0.857370	0.707700
C471	C47	0.742200	0.819200	0.693300
C481	C48	0.700700	0.775600	0.738900
C491	C49	0.319200	0.891000	0.782700
H211	H21	0.431100	0.888200	0.822700
C501	C50	0.359000	0.933100	0.739400
H221	H22	0.497700	0.958800	0.750600
C511	C51	0.200100	0.938000	0.680400
C521	C52	0.995100	0.898500	0.661600
C531	C53	0.833500	0.897190	0.600300
C541	C54	0.627600	0.860100	0.588700
H231	H23	0.517900	0.860500	0.548200
C551	C55	0.578600	0.821700	0.635900
H241	H24	0.431400	0.797400	0.628000
C561	C56	0.252800	0.988050	0.642400
C571	C57	0.898800	0.929270	0.542000
Cd41	Cd4	0.822800	0.542360	0.940500
O191	O19	0.443200	0.517430	0.878130
O201	O20	0.002600	0.498450	0.862110
O211	O21	0.782200	0.458950	0.987950
O221	O22	0.371400	0.421280	0.975950
O231	O23	0.263700	0.302940	0.636600
O241	O24	0.983100	0.242780	0.769700
N71	N7	0.627800	0.126270	0.601300
C581	C58	0.460000	0.133400	0.646400
H251	H25	0.343400	0.104700	0.655400
C591	C59	0.447100	0.180700	0.681000
H261	H26	0.324400	0.184400	0.713000
C601	C60	0.613900	0.221900	0.668200
C611	C61	0.777300	0.217000	0.619900
H271	H27	0.886500	0.246000	0.608100
C621	C62	0.778500	0.167600	0.588300
H281	H28	0.895900	0.163500	0.555100
N81	N8	0.609400	0.270810	0.705900
C631	C63	0.407700	0.308700	0.687300
C641	C64	0.381200	0.354000	0.732800
C651	C65	0.547600	0.357370	0.792300
C661	C66	0.757800	0.319200	0.806700
C671	C67	0.799300	0.275600	0.761100
C681	C68	0.180800	0.391000	0.717300
H291	H29	0.068900	0.388200	0.677300
C691	C69	0.141000	0.433100	0.760600
H301	H30	0.002300	0.458800	0.749400
C701	C70	0.299900	0.438000	0.819600
C711	C71	0.504900	0.398500	0.838400
C721	C72	0.666500	0.397190	0.899700
C731	C73	0.872400	0.360100	0.911300
H311	H31	0.982100	0.360500	0.951800
C741	C74	0.921400	0.321700	0.864100
H321	H32	0.068600	0.297400	0.872000
C751	C75	0.247200	0.488050	0.857600
C761	C76	0.601200	0.429270	0.958000
