data_XEXMEU_clean_PM
_symmetry_space_group_name_H-M	'P1'
_cell_length_a	5.636400
_cell_length_b	18.886300
_cell_length_c	25.301000
_cell_angle_alpha	90.000000
_cell_angle_beta	90.000000
_cell_angle_gamma	95.470000
_symmetry_Int_Tables_number 1

loop_
_symmetry_equiv_pos_as_xyz
'x,y,z'

loop_
_atom_site_label
_atom_site_type_symbol
_atom_site_fract_x
_atom_site_fract_y
_atom_site_fract_z
Zn11	Zn1	0.103000	0.560250	0.533320
Zn21	Zn2	0.897000	0.939750	0.033320
Zn31	Zn3	0.897000	0.439750	0.466680
Zn41	Zn4	0.103000	0.060250	0.966680
H11	H1	0.475300	0.910600	0.107400
H21	H2	0.390800	0.845300	0.184200
H31	H3	0.987000	0.745400	0.158300
H41	H4	0.058400	0.815500	0.084300
H51	H5	0.127000	0.600800	0.256900
H61	H6	0.072800	0.534400	0.334800
H71	H7	0.029500	0.707400	0.432500
H81	H8	0.067100	0.776100	0.355800
H91	H9	0.524700	0.589400	0.607400
H101	H10	0.609200	0.654700	0.684200
H111	H11	0.013000	0.754600	0.658300
H121	H12	0.941600	0.684500	0.584300
H131	H13	0.873000	0.899200	0.756900
H141	H14	0.927200	0.965600	0.834800
H151	H15	0.970500	0.792600	0.932500
H161	H16	0.932900	0.723900	0.855800
H171	H17	0.524700	0.089400	0.892600
H181	H18	0.609200	0.154700	0.815800
H191	H19	0.013000	0.254600	0.841700
H201	H20	0.941600	0.184500	0.915700
H211	H21	0.873000	0.399200	0.743100
H221	H22	0.927200	0.465600	0.665200
H231	H23	0.970500	0.292600	0.567500
H241	H24	0.932900	0.223900	0.644200
H251	H25	0.475300	0.410600	0.392600
H261	H26	0.390800	0.345300	0.315800
H271	H27	0.987000	0.245400	0.341700
H281	H28	0.058400	0.315500	0.415700
H291	H29	0.127000	0.100800	0.243100
H301	H30	0.072800	0.034400	0.165200
H311	H31	0.029500	0.207400	0.067500
H321	H32	0.067100	0.276100	0.144200
C11	C1	0.581300	0.877400	0.118610
C21	C2	0.529900	0.839000	0.164130
C31	C3	0.687300	0.791100	0.179760
C41	C4	0.883000	0.780200	0.149090
C51	C5	0.921200	0.821300	0.105100
C61	C6	0.450900	0.702200	0.232090
C71	C7	0.423900	0.661100	0.281700
C81	C8	0.588700	0.673400	0.323220
C91	C9	0.784700	0.726800	0.318170
C101	C10	0.820600	0.767200	0.268810
C111	C11	0.234700	0.609500	0.285590
C121	C12	0.203400	0.570000	0.332100
C131	C13	0.357300	0.581300	0.374280
C141	C14	0.561200	0.632200	0.370260
C151	C15	0.738500	0.644000	0.409980
C161	C16	0.918500	0.698000	0.404510
C171	C17	0.941100	0.739100	0.358710
C181	C18	0.275200	0.544800	0.424830
C191	C19	0.774400	0.592900	0.454610
C201	C20	0.418700	0.622600	0.618610
C211	C21	0.470100	0.661000	0.664130
C221	C22	0.312700	0.708900	0.679760
C231	C23	0.117000	0.719800	0.649090
C241	C24	0.078800	0.678700	0.605100
C251	C25	0.549100	0.797800	0.732090
C261	C26	0.576100	0.838900	0.781700
C271	C27	0.411300	0.826600	0.823220
C281	C28	0.215300	0.773200	0.818170
C291	C29	0.179400	0.732800	0.768810
C301	C30	0.765300	0.890500	0.785590
C311	C31	0.796600	0.930000	0.832100
C321	C32	0.642700	0.918700	0.874280
C331	C33	0.438800	0.867800	0.870260
C341	C34	0.261500	0.856000	0.909980
C351	C35	0.081500	0.802000	0.904510
C361	C36	0.058900	0.760900	0.858710
C371	C37	0.724800	0.955200	0.924830
C381	C38	0.225600	0.907100	0.954610
C391	C39	0.418700	0.122600	0.881390
C401	C40	0.470100	0.161000	0.835870
C411	C41	0.312700	0.208900	0.820240
C421	C42	0.117000	0.219800	0.850910
C431	C43	0.078800	0.178700	0.894900
C441	C44	0.549100	0.297800	0.767910
C451	C45	0.576100	0.338900	0.718300
C461	C46	0.411300	0.326600	0.676780
C471	C47	0.215300	0.273200	0.681830
C481	C48	0.179400	0.232800	0.731190
C491	C49	0.765300	0.390500	0.714410
C501	C50	0.796600	0.430000	0.667900
C511	C51	0.642700	0.418700	0.625720
C521	C52	0.438800	0.367800	0.629740
C531	C53	0.261500	0.356000	0.590020
C541	C54	0.081500	0.302000	0.595490
C551	C55	0.058900	0.260900	0.641290
C561	C56	0.724800	0.455200	0.575170
C571	C57	0.225600	0.407100	0.545390
C581	C58	0.581300	0.377400	0.381390
C591	C59	0.529900	0.339000	0.335870
C601	C60	0.687300	0.291100	0.320240
C611	C61	0.883000	0.280200	0.350910
C621	C62	0.921200	0.321300	0.394900
C631	C63	0.450900	0.202200	0.267910
C641	C64	0.423900	0.161100	0.218300
C651	C65	0.588700	0.173400	0.176780
C661	C66	0.784700	0.226800	0.181830
C671	C67	0.820600	0.267200	0.231190
C681	C68	0.234700	0.109500	0.214410
C691	C69	0.203400	0.070000	0.167900
C701	C70	0.357300	0.081300	0.125720
C711	C71	0.561200	0.132200	0.129740
C721	C72	0.738500	0.144000	0.090020
C731	C73	0.918500	0.198000	0.095490
C741	C74	0.941100	0.239100	0.141290
C751	C75	0.275200	0.044800	0.075170
C761	C76	0.774400	0.092900	0.045390
N11	N1	0.775900	0.869450	0.089520
N21	N2	0.651200	0.752900	0.229030
N31	N3	0.224100	0.630550	0.589520
N41	N4	0.348800	0.747100	0.729030
N51	N5	0.224100	0.130550	0.910480
N61	N6	0.348800	0.247100	0.770970
N71	N7	0.775900	0.369450	0.410480
N81	N8	0.651200	0.252900	0.270970
O11	O1	0.290200	0.582000	0.466350
O21	O2	0.178600	0.482320	0.420840
O31	O3	0.741200	0.527700	0.442930
O41	O4	0.854900	0.618300	0.497150
O51	O5	0.315400	0.694220	0.194830
O61	O6	0.987400	0.811900	0.261880
O71	O7	0.709800	0.918000	0.966350
O81	O8	0.821400	0.017680	0.920840
O91	O9	0.258800	0.972300	0.942930
O101	O10	0.145100	0.881700	0.997150
O111	O11	0.684600	0.805780	0.694830
O121	O12	0.012600	0.688100	0.761880
O131	O13	0.709800	0.418000	0.533650
O141	O14	0.821400	0.517680	0.579160
O151	O15	0.258800	0.472300	0.557070
O161	O16	0.145100	0.381700	0.502850
O171	O17	0.684600	0.305780	0.805170
O181	O18	0.012600	0.188100	0.738120
O191	O19	0.290200	0.082000	0.033650
O201	O20	0.178600	0.982320	0.079160
O211	O21	0.741200	0.027700	0.057070
O221	O22	0.854900	0.118300	0.002850
O231	O23	0.315400	0.194220	0.305170
O241	O24	0.987400	0.311900	0.238120
