data_XEYMAR_clean_PM
_symmetry_space_group_name_H-M	'P1'
_cell_length_a	18.004300
_cell_length_b	18.159400
_cell_length_c	21.116400
_cell_angle_alpha	90.000000
_cell_angle_beta	90.000000
_cell_angle_gamma	93.344000
_symmetry_Int_Tables_number 1

loop_
_symmetry_equiv_pos_as_xyz
'x,y,z'

loop_
_atom_site_label
_atom_site_type_symbol
_atom_site_fract_x
_atom_site_fract_y
_atom_site_fract_z
Mn11	Mn1	0.305230	0.014260	0.062740
Mn21	Mn2	0.653960	0.352600	0.685030
Mn31	Mn3	0.694770	0.485740	0.562740
Mn41	Mn4	0.346040	0.147400	0.185030
Cu11	Cu1	0.268680	0.511990	0.770000
Cu21	Cu2	0.205010	0.591290	0.863400
Cu31	Cu3	0.208030	0.440520	0.870190
Cu41	Cu4	0.119820	0.509490	0.790780
Cu51	Cu5	0.731320	0.988010	0.270000
Cu61	Cu6	0.794990	0.908710	0.363400
Cu71	Cu7	0.791970	0.059480	0.370190
Cu81	Cu8	0.880180	0.990510	0.290780
H11	H1	0.623700	0.435100	0.784300
H21	H2	0.701100	0.219300	0.701700
H31	H3	0.242900	0.641500	0.991100
H41	H4	0.910600	0.551700	0.646400
H51	H5	0.424500	0.484900	0.785700
H61	H6	0.026600	0.571300	0.692000
H71	H7	0.277500	0.747100	0.045200
H81	H8	0.222700	0.863000	0.895400
H91	H9	0.318700	0.513000	0.632100
H101	H10	0.984900	0.415000	0.808200
H111	H11	0.245500	0.407100	0.002000
H121	H12	0.225300	0.279400	0.857600
H131	H13	0.268100	0.182100	0.918300
H141	H14	0.280800	0.314400	0.065700
H151	H15	0.423400	0.503300	0.573200
H161	H16	0.869600	0.390500	0.765600
H171	H17	0.532500	0.464100	0.733700
H181	H18	0.194800	0.755400	0.842700
H191	H19	0.376300	0.064900	0.284300
H201	H20	0.298900	0.280700	0.201700
H211	H21	0.757100	0.858500	0.491100
H221	H22	0.089400	0.948300	0.146400
H231	H23	0.575500	0.015100	0.285700
H241	H24	0.973400	0.928700	0.192000
H251	H25	0.722500	0.752900	0.545200
H261	H26	0.777300	0.637000	0.395400
H271	H27	0.681300	0.987000	0.132100
H281	H28	0.015100	0.085000	0.308200
H291	H29	0.754500	0.092900	0.502000
H301	H30	0.774700	0.220600	0.357600
H311	H31	0.731900	0.317900	0.418300
H321	H32	0.719200	0.185600	0.565700
H331	H33	0.576600	0.996700	0.073200
H341	H34	0.130400	0.109500	0.265600
H351	H35	0.467500	0.035900	0.233700
H361	H36	0.805200	0.744600	0.342700
C11	C1	0.239700	0.686600	0.970800
C21	C2	0.925100	0.521000	0.678800
C31	C3	0.424200	0.487200	0.741700
C41	C4	0.994800	0.533200	0.707300
C51	C5	0.260000	0.750400	0.004000
C61	C6	0.228500	0.818400	0.915900
C71	C7	0.562900	0.476500	0.614900
C81	C8	0.363100	0.504900	0.652700
C91	C9	0.970900	0.443300	0.773900
C101	C10	0.302900	0.175500	0.040800
C111	C11	0.248800	0.360500	0.984300
C121	C12	0.237800	0.287100	0.899900
C131	C13	0.262100	0.227800	0.936900
C141	C14	0.275400	0.889800	0.010600
C151	C15	0.270500	0.305100	0.023200
C161	C16	0.254500	0.818300	0.976800
C171	C17	0.276500	0.237900	0.999200
C181	C18	0.425300	0.498800	0.617100
C191	C19	0.901200	0.427400	0.748200
C201	C20	0.490300	0.476700	0.711700
C211	C21	0.802400	0.450400	0.665000
C221	C22	0.210900	0.753100	0.884400
C231	C23	0.490400	0.486000	0.646800
C241	C24	0.879700	0.465200	0.698400
C251	C25	0.760300	0.813400	0.470800
C261	C26	0.074900	0.979000	0.178800
C271	C27	0.575800	0.012800	0.241700
C281	C28	0.005200	0.966800	0.207300
C291	C29	0.740000	0.749600	0.504000
C301	C30	0.771500	0.681600	0.415900
C311	C31	0.437100	0.023500	0.114900
C321	C32	0.636900	0.995100	0.152700
C331	C33	0.029100	0.056700	0.273900
C341	C34	0.697100	0.324500	0.540800
C351	C35	0.751200	0.139500	0.484300
C361	C36	0.762200	0.212900	0.399900
C371	C37	0.737900	0.272200	0.436900
C381	C38	0.724600	0.610200	0.510600
C391	C39	0.729500	0.194900	0.523200
C401	C40	0.745500	0.681700	0.476800
C411	C41	0.723500	0.262100	0.499200
C421	C42	0.574700	0.001200	0.117100
C431	C43	0.098800	0.072600	0.248200
C441	C44	0.509700	0.023300	0.211700
C451	C45	0.197600	0.049600	0.165000
C461	C46	0.789100	0.746900	0.384400
C471	C47	0.509600	0.014000	0.146800
C481	C48	0.120300	0.034800	0.198400
I11	I1	0.191280	0.627560	0.739550
I21	I2	0.184620	0.385340	0.754830
I31	I3	0.093900	0.509620	0.918020
I41	I4	0.332400	0.529630	0.889440
I51	I5	0.808720	0.872440	0.239550
I61	I6	0.815380	0.114660	0.254830
I71	I7	0.906100	0.990380	0.418020
I81	I8	0.667600	0.970370	0.389440
N11	N1	0.017500	0.493900	0.754100
N21	N2	0.215900	0.687000	0.910900
N31	N3	0.232800	0.352700	0.925100
N41	N4	0.362400	0.499900	0.715500
N51	N5	0.982500	0.006100	0.254100
N61	N6	0.784100	0.813000	0.410900
N71	N7	0.767200	0.147300	0.425100
N81	N8	0.637600	0.000100	0.215500
O11	O1	0.638500	0.393200	0.785200
O21	O2	0.690300	0.248300	0.729500
O31	O3	0.762600	0.401100	0.692300
O41	O4	0.298600	0.113800	0.015000
O51	O5	0.295200	0.886300	0.067500
O61	O6	0.324400	0.192900	0.094000
O71	O7	0.568300	0.498500	0.557600
O81	O8	0.271400	0.947400	0.981700
O91	O9	0.789700	0.483100	0.616200
O101	O10	0.618900	0.456600	0.642800
O111	O11	0.361500	0.106800	0.285200
O121	O12	0.309700	0.251700	0.229500
O131	O13	0.237400	0.098900	0.192300
O141	O14	0.701400	0.386200	0.515000
O151	O15	0.704800	0.613700	0.567500
O161	O16	0.675600	0.307100	0.594000
O171	O17	0.431700	0.001500	0.057600
O181	O18	0.728600	0.552600	0.481700
O191	O19	0.210300	0.016900	0.116200
O201	O20	0.381100	0.043400	0.142800
Mn51	Mn5	0.694770	0.985740	0.937260
Mn61	Mn6	0.346040	0.647400	0.314970
Mn71	Mn7	0.305230	0.514260	0.437260
Mn81	Mn8	0.653960	0.852600	0.814970
Cu91	Cu9	0.731320	0.488010	0.230000
Cu101	Cu10	0.794990	0.408710	0.136600
Cu111	Cu11	0.791970	0.559480	0.129810
Cu121	Cu12	0.880180	0.490510	0.209220
Cu131	Cu13	0.268680	0.011990	0.730000
Cu141	Cu14	0.205010	0.091290	0.636600
Cu151	Cu15	0.208030	0.940520	0.629810
Cu161	Cu16	0.119820	0.009490	0.709220
H371	H37	0.376300	0.564900	0.215700
H381	H38	0.298900	0.780700	0.298300
H391	H39	0.757100	0.358500	0.008900
H401	H40	0.089400	0.448300	0.353600
H411	H41	0.575500	0.515100	0.214300
H421	H42	0.973400	0.428700	0.308000
H431	H43	0.722500	0.252900	0.954800
H441	H44	0.777300	0.137000	0.104600
H451	H45	0.681300	0.487000	0.367900
H461	H46	0.015100	0.585000	0.191800
H471	H47	0.754500	0.592900	0.998000
H481	H48	0.774700	0.720600	0.142400
H491	H49	0.731900	0.817900	0.081700
H501	H50	0.719200	0.685600	0.934300
H511	H51	0.576600	0.496700	0.426800
H521	H52	0.130400	0.609500	0.234400
H531	H53	0.467500	0.535900	0.266300
H541	H54	0.805200	0.244600	0.157300
H551	H55	0.623700	0.935100	0.715700
H561	H56	0.701100	0.719300	0.798300
H571	H57	0.242900	0.141500	0.508900
H581	H58	0.910600	0.051700	0.853600
H591	H59	0.424500	0.984900	0.714300
H601	H60	0.026600	0.071300	0.808000
H611	H61	0.277500	0.247100	0.454800
H621	H62	0.222700	0.363000	0.604600
H631	H63	0.318700	0.013000	0.867900
H641	H64	0.984900	0.915000	0.691800
H651	H65	0.245500	0.907100	0.498000
H661	H66	0.225300	0.779400	0.642400
H671	H67	0.268100	0.682100	0.581700
H681	H68	0.280800	0.814400	0.434300
H691	H69	0.423400	0.003300	0.926800
H701	H70	0.869600	0.890500	0.734400
H711	H71	0.532500	0.964100	0.766300
H721	H72	0.194800	0.255400	0.657300
C491	C49	0.760300	0.313400	0.029200
C501	C50	0.074900	0.479000	0.321200
C511	C51	0.575800	0.512800	0.258300
C521	C52	0.005200	0.466800	0.292700
C531	C53	0.740000	0.249600	0.996000
C541	C54	0.771500	0.181600	0.084100
C551	C55	0.437100	0.523500	0.385100
C561	C56	0.636900	0.495100	0.347300
C571	C57	0.029100	0.556700	0.226100
C581	C58	0.697100	0.824500	0.959200
C591	C59	0.751200	0.639500	0.015700
C601	C60	0.762200	0.712900	0.100100
C611	C61	0.737900	0.772200	0.063100
C621	C62	0.724600	0.110200	0.989400
C631	C63	0.729500	0.694900	0.976800
C641	C64	0.745500	0.181700	0.023200
C651	C65	0.723500	0.762100	0.000800
C661	C66	0.574700	0.501200	0.382900
C671	C67	0.098800	0.572600	0.251800
C681	C68	0.509700	0.523300	0.288300
C691	C69	0.197600	0.549600	0.335000
C701	C70	0.789100	0.246900	0.115600
C711	C71	0.509600	0.514000	0.353200
C721	C72	0.120300	0.534800	0.301600
C731	C73	0.239700	0.186600	0.529200
C741	C74	0.925100	0.021000	0.821200
C751	C75	0.424200	0.987200	0.758300
C761	C76	0.994800	0.033200	0.792700
C771	C77	0.260000	0.250400	0.496000
C781	C78	0.228500	0.318400	0.584100
C791	C79	0.562900	0.976500	0.885100
C801	C80	0.363100	0.004900	0.847300
C811	C81	0.970900	0.943300	0.726100
C821	C82	0.302900	0.675500	0.459200
C831	C83	0.248800	0.860500	0.515700
C841	C84	0.237800	0.787100	0.600100
C851	C85	0.262100	0.727800	0.563100
C861	C86	0.275400	0.389800	0.489400
C871	C87	0.270500	0.805100	0.476800
C881	C88	0.254500	0.318300	0.523200
C891	C89	0.276500	0.737900	0.500800
C901	C90	0.425300	0.998800	0.882900
C911	C91	0.901200	0.927400	0.751800
C921	C92	0.490300	0.976700	0.788300
C931	C93	0.802400	0.950400	0.835000
C941	C94	0.210900	0.253100	0.615600
C951	C95	0.490400	0.986000	0.853200
C961	C96	0.879700	0.965200	0.801600
I91	I9	0.808720	0.372440	0.260450
I101	I10	0.815380	0.614660	0.245170
I111	I11	0.906100	0.490380	0.081980
I121	I12	0.667600	0.470370	0.110560
I131	I13	0.191280	0.127560	0.760450
I141	I14	0.184620	0.885340	0.745170
I151	I15	0.093900	0.009620	0.581980
I161	I16	0.332400	0.029630	0.610560
N91	N9	0.982500	0.506100	0.245900
N101	N10	0.784100	0.313000	0.089100
N111	N11	0.767200	0.647300	0.074900
N121	N12	0.637600	0.500100	0.284500
N131	N13	0.017500	0.993900	0.745900
N141	N14	0.215900	0.187000	0.589100
N151	N15	0.232800	0.852700	0.574900
N161	N16	0.362400	0.999900	0.784500
O211	O21	0.361500	0.606800	0.214800
O221	O22	0.309700	0.751700	0.270500
O231	O23	0.237400	0.598900	0.307700
O241	O24	0.701400	0.886200	0.985000
O251	O25	0.704800	0.113700	0.932500
O261	O26	0.675600	0.807100	0.906000
O271	O27	0.431700	0.501500	0.442400
O281	O28	0.728600	0.052600	0.018300
O291	O29	0.210300	0.516900	0.383800
O301	O30	0.381100	0.543400	0.357200
O311	O31	0.638500	0.893200	0.714800
O321	O32	0.690300	0.748300	0.770500
O331	O33	0.762600	0.901100	0.807700
O341	O34	0.298600	0.613800	0.485000
O351	O35	0.295200	0.386300	0.432500
O361	O36	0.324400	0.692900	0.406000
O371	O37	0.568300	0.998500	0.942400
O381	O38	0.271400	0.447400	0.518300
O391	O39	0.789700	0.983100	0.883800
O401	O40	0.618900	0.956600	0.857200
