data_XIBZUF_clean_PM
_symmetry_space_group_name_H-M	'P1'
_cell_length_a	14.459000
_cell_length_b	20.243000
_cell_length_c	21.109000
_cell_angle_alpha	90.000000
_cell_angle_beta	90.000000
_cell_angle_gamma	90.000000
_symmetry_Int_Tables_number 1

loop_
_symmetry_equiv_pos_as_xyz
'x,y,z'

loop_
_atom_site_label
_atom_site_type_symbol
_atom_site_fract_x
_atom_site_fract_y
_atom_site_fract_z
Y11	Y1	0.051310	0.181070	0.903050
Y21	Y2	0.802110	0.348880	0.933860
Y31	Y3	0.448690	0.818930	0.403050
Y41	Y4	0.697890	0.651120	0.433860
Y51	Y5	0.948690	0.681070	0.596950
Y61	Y6	0.197890	0.848880	0.566140
Y71	Y7	0.551310	0.318930	0.096950
Y81	Y8	0.302110	0.151120	0.066140
H11	H1	0.694200	0.946500	0.916700
H21	H2	0.556500	0.838100	0.789200
H31	H3	0.649700	0.715000	0.103100
H41	H4	0.677900	0.210800	0.994400
H51	H5	0.553000	0.034300	0.011000
H61	H6	0.799000	0.048200	0.923300
H71	H7	0.633800	0.805400	0.055800
H81	H8	0.585400	0.677700	0.914000
H91	H9	0.621400	0.870000	0.875900
H101	H10	0.449800	0.830600	0.692500
H111	H11	0.573400	0.760100	0.536800
H121	H12	0.695700	0.743900	0.706100
H131	H13	0.645500	0.684100	0.212900
H141	H14	0.626900	0.492100	0.259400
H151	H15	0.607900	0.547600	0.077100
H161	H16	0.805800	0.053500	0.416700
H171	H17	0.943500	0.161900	0.289200
H181	H18	0.850300	0.285000	0.603100
H191	H19	0.822100	0.789200	0.494400
H201	H20	0.947000	0.965700	0.511000
H211	H21	0.701000	0.951800	0.423300
H221	H22	0.866200	0.194600	0.555800
H231	H23	0.914600	0.322300	0.414000
H241	H24	0.878600	0.130000	0.375900
H251	H25	0.050200	0.169400	0.192500
H261	H26	0.926600	0.239900	0.036800
H271	H27	0.804300	0.256100	0.206100
H281	H28	0.854500	0.315900	0.712900
H291	H29	0.873100	0.507900	0.759400
H301	H30	0.892100	0.452400	0.577100
H311	H31	0.305800	0.446500	0.583300
H321	H32	0.443500	0.338100	0.710800
H331	H33	0.350300	0.215000	0.396900
H341	H34	0.322100	0.710800	0.505600
H351	H35	0.447000	0.534300	0.489000
H361	H36	0.201000	0.548200	0.576700
H371	H37	0.366200	0.305400	0.444200
H381	H38	0.414600	0.177700	0.586000
H391	H39	0.378600	0.370000	0.624100
H401	H40	0.550200	0.330600	0.807500
H411	H41	0.426600	0.260100	0.963200
H421	H42	0.304300	0.243900	0.793900
H431	H43	0.354500	0.184100	0.287100
H441	H44	0.373100	0.992100	0.240600
H451	H45	0.392100	0.047600	0.422900
H461	H46	0.194200	0.553500	0.083300
H471	H47	0.056500	0.661900	0.210800
H481	H48	0.149700	0.785000	0.896900
H491	H49	0.177900	0.289200	0.005600
H501	H50	0.053000	0.465700	0.989000
H511	H51	0.299000	0.451800	0.076700
H521	H52	0.133800	0.694600	0.944200
H531	H53	0.085400	0.822300	0.086000
H541	H54	0.121400	0.630000	0.124100
H551	H55	0.949800	0.669400	0.307500
H561	H56	0.073400	0.739900	0.463200
H571	H57	0.195700	0.756100	0.293900
H581	H58	0.145500	0.815900	0.787100
H591	H59	0.126900	0.007900	0.740600
H601	H60	0.107900	0.952400	0.922900
C11	C1	0.830800	0.176700	0.932600
C21	C2	0.750700	0.135800	0.955400
C31	C3	0.677400	0.165520	0.987100
C41	C4	0.603300	0.127500	0.007900
C51	C5	0.602600	0.059800	0.997000
C61	C6	0.675900	0.030080	0.965300
C71	C7	0.749900	0.068100	0.944500
C81	C8	0.524500	0.157300	0.040700
C91	C9	0.640900	0.916000	0.993900
C101	C10	0.629100	0.848200	0.968400
C111	C11	0.622400	0.796700	0.013200
C121	C12	0.599800	0.735100	0.994900
C131	C13	0.595200	0.720800	0.927700
C141	C14	0.605300	0.770300	0.884400
C151	C15	0.619100	0.835600	0.905100
C161	C16	0.598000	0.753500	0.816500
C171	C17	0.574100	0.788500	0.708200
C181	C18	0.499500	0.809500	0.673100
C191	C19	0.500000	0.798100	0.606500
C201	C20	0.418100	0.822600	0.568900
C211	C21	0.573300	0.767500	0.580300
C221	C22	0.646900	0.747100	0.615000
C231	C23	0.727700	0.708500	0.587600
C241	C24	0.646200	0.757900	0.681300
C251	C25	0.591800	0.676100	0.034500
C261	C26	0.626700	0.624000	0.137400
C271	C27	0.638000	0.640220	0.200900
C281	C28	0.638100	0.590800	0.246640
C291	C29	0.626900	0.525200	0.228800
C301	C30	0.615500	0.509000	0.165300
C311	C31	0.615500	0.558400	0.119590
C321	C32	0.657600	0.609700	0.312800
C331	C33	0.596600	0.441200	0.142200
C341	C34	0.669200	0.823300	0.432600
C351	C35	0.749300	0.864200	0.455400
C361	C36	0.822600	0.834480	0.487100
C371	C37	0.896700	0.872500	0.507900
C381	C38	0.897400	0.940200	0.497000
C391	C39	0.824100	0.969920	0.465300
C401	C40	0.750100	0.931900	0.444500
C411	C41	0.975500	0.842700	0.540700
C421	C42	0.859100	0.084000	0.493900
C431	C43	0.870900	0.151800	0.468400
C441	C44	0.877600	0.203300	0.513200
C451	C45	0.900200	0.264900	0.494900
C461	C46	0.904800	0.279200	0.427700
C471	C47	0.894700	0.229700	0.384400
C481	C48	0.880900	0.164400	0.405100
C491	C49	0.902000	0.246500	0.316500
C501	C50	0.925900	0.211500	0.208200
C511	C51	0.000500	0.190500	0.173100
C521	C52	0.000000	0.201900	0.106500
C531	C53	0.081900	0.177400	0.068900
C541	C54	0.926700	0.232500	0.080300
C551	C55	0.853100	0.252900	0.115000
C561	C56	0.772300	0.291500	0.087600
C571	C57	0.853800	0.242100	0.181300
C581	C58	0.908200	0.323900	0.534500
C591	C59	0.873300	0.376000	0.637400
C601	C60	0.862000	0.359780	0.700900
C611	C61	0.861900	0.409200	0.746640
C621	C62	0.873100	0.474800	0.728800
C631	C63	0.884500	0.491000	0.665300
C641	C64	0.884500	0.441600	0.619590
C651	C65	0.842400	0.390300	0.812800
C661	C66	0.903400	0.558800	0.642200
C671	C67	0.169200	0.676700	0.567400
C681	C68	0.249300	0.635800	0.544600
C691	C69	0.322600	0.665520	0.512900
C701	C70	0.396700	0.627500	0.492100
C711	C71	0.397400	0.559800	0.503000
C721	C72	0.324100	0.530080	0.534700
C731	C73	0.250100	0.568100	0.555500
C741	C74	0.475500	0.657300	0.459300
C751	C75	0.359100	0.416000	0.506100
C761	C76	0.370900	0.348200	0.531600
C771	C77	0.377600	0.296700	0.486800
C781	C78	0.400200	0.235100	0.505100
C791	C79	0.404800	0.220800	0.572300
C801	C80	0.394700	0.270300	0.615600
C811	C81	0.380900	0.335600	0.594900
C821	C82	0.402000	0.253500	0.683500
C831	C83	0.425900	0.288500	0.791800
C841	C84	0.500500	0.309500	0.826900
C851	C85	0.500000	0.298100	0.893500
C861	C86	0.581900	0.322600	0.931100
C871	C87	0.426700	0.267500	0.919700
C881	C88	0.353100	0.247100	0.885000
C891	C89	0.272300	0.208500	0.912400
C901	C90	0.353800	0.257900	0.818700
C911	C91	0.408200	0.176100	0.465500
C921	C92	0.373300	0.124000	0.362600
C931	C93	0.362000	0.140220	0.299100
C941	C94	0.361900	0.090800	0.253360
C951	C95	0.373100	0.025200	0.271200
C961	C96	0.384500	0.009000	0.334700
C971	C97	0.384500	0.058400	0.380410
C981	C98	0.342400	0.109700	0.187200
C991	C99	0.403400	0.941200	0.357800
C1001	C100	0.330800	0.323300	0.067400
C1011	C101	0.250700	0.364200	0.044600
C1021	C102	0.177400	0.334480	0.012900
C1031	C103	0.103300	0.372500	0.992100
C1041	C104	0.102600	0.440200	0.003000
C1051	C105	0.175900	0.469920	0.034700
C1061	C106	0.249900	0.431900	0.055500
C1071	C107	0.024500	0.342700	0.959300
C1081	C108	0.140900	0.584000	0.006100
C1091	C109	0.129100	0.651800	0.031600
C1101	C110	0.122400	0.703300	0.986800
C1111	C111	0.099800	0.764900	0.005100
C1121	C112	0.095200	0.779200	0.072300
C1131	C113	0.105300	0.729700	0.115600
C1141	C114	0.119100	0.664400	0.094900
C1151	C115	0.098000	0.746500	0.183500
C1161	C116	0.074100	0.711500	0.291800
C1171	C117	0.999500	0.690500	0.326900
C1181	C118	0.000000	0.701900	0.393500
C1191	C119	0.918100	0.677400	0.431100
C1201	C120	0.073300	0.732500	0.419700
C1211	C121	0.146900	0.752900	0.385000
C1221	C122	0.227700	0.791500	0.412400
C1231	C123	0.146200	0.742100	0.318700
C1241	C124	0.091800	0.823900	0.965500
C1251	C125	0.126700	0.876000	0.862600
C1261	C126	0.138000	0.859780	0.799100
C1271	C127	0.138100	0.909200	0.753360
C1281	C128	0.126900	0.974800	0.771200
C1291	C129	0.115500	0.991000	0.834700
C1301	C130	0.115500	0.941600	0.880410
C1311	C131	0.157600	0.890300	0.687200
C1321	C132	0.096600	0.058800	0.857800
N11	N1	0.673600	0.960400	0.952500
N21	N2	0.573300	0.800000	0.775300
N31	N3	0.625500	0.678200	0.091300
N41	N4	0.826400	0.039600	0.452500
N51	N5	0.926700	0.200000	0.275300
N61	N6	0.874500	0.321800	0.591300
N71	N7	0.326400	0.460400	0.547500
N81	N8	0.426700	0.300000	0.724700
N91	N9	0.374500	0.178200	0.408700
N101	N10	0.173600	0.539600	0.047500
N111	N11	0.073300	0.700000	0.224700
N121	N12	0.125500	0.821800	0.908700
O11	O1	0.904800	0.146200	0.918900
O21	O2	0.820500	0.239400	0.929700
O31	O3	0.534700	0.213700	0.064900
O41	O4	0.449600	0.126800	0.041600
O51	O5	0.620800	0.931600	0.045700
O61	O6	0.345300	0.832100	0.597700
O71	O7	0.430500	0.826600	0.509400
O81	O8	0.715200	0.681000	0.534100
O91	O9	0.801500	0.708700	0.618000
O101	O10	0.620800	0.695600	0.800100
O111	O11	0.677900	0.567600	0.354500
O121	O12	0.647300	0.671100	0.329500
O131	O13	0.570500	0.396000	0.181800
O141	O14	0.605600	0.428400	0.083700
O151	O15	0.534200	0.627800	0.017900
O161	O16	0.595200	0.853800	0.418900
O171	O17	0.679500	0.760600	0.429700
O181	O18	0.965300	0.786300	0.564900
O191	O19	0.050400	0.873200	0.541600
O201	O20	0.879200	0.068400	0.545700
O211	O21	0.154700	0.167900	0.097700
O221	O22	0.069500	0.173400	0.009400
O231	O23	0.784800	0.319000	0.034100
O241	O24	0.698500	0.291300	0.118000
O251	O25	0.879200	0.304400	0.300100
O261	O26	0.822100	0.432400	0.854500
O271	O27	0.852700	0.328900	0.829500
O281	O28	0.929500	0.604000	0.681800
O291	O29	0.894400	0.571600	0.583700
O301	O30	0.965800	0.372200	0.517900
O311	O31	0.095200	0.646200	0.581100
O321	O32	0.179500	0.739400	0.570300
O331	O33	0.465300	0.713700	0.435100
O341	O34	0.550400	0.626800	0.458400
O351	O35	0.379200	0.431600	0.454300
O361	O36	0.654700	0.332100	0.902300
O371	O37	0.569500	0.326600	0.990600
O381	O38	0.284800	0.181000	0.965900
O391	O39	0.198500	0.208700	0.882000
O401	O40	0.379200	0.195600	0.699900
O411	O41	0.322100	0.067600	0.145500
O421	O42	0.352700	0.171100	0.170500
O431	O43	0.429500	0.896000	0.318200
O441	O44	0.394400	0.928400	0.416300
O451	O45	0.465800	0.127800	0.482100
O461	O46	0.404800	0.353800	0.081100
O471	O47	0.320500	0.260600	0.070300
O481	O48	0.034700	0.286300	0.935100
O491	O49	0.949600	0.373200	0.958400
O501	O50	0.120800	0.568400	0.954300
O511	O51	0.845300	0.667900	0.402300
O521	O52	0.930500	0.673400	0.490600
O531	O53	0.215200	0.819000	0.465900
O541	O54	0.301500	0.791300	0.382000
O551	O55	0.120800	0.804400	0.199900
O561	O56	0.177900	0.932400	0.645500
O571	O57	0.147300	0.828900	0.670500
O581	O58	0.070500	0.104000	0.818200
O591	O59	0.105600	0.071600	0.916300
O601	O60	0.034200	0.872200	0.982100
