data_XICVUB_clean_PM
_symmetry_space_group_name_H-M	'P1'
_cell_length_a	11.653100
_cell_length_b	21.987500
_cell_length_c	15.310400
_cell_angle_alpha	90.000000
_cell_angle_beta	110.029000
_cell_angle_gamma	90.000000
_symmetry_Int_Tables_number 1

loop_
_symmetry_equiv_pos_as_xyz
'x,y,z'

loop_
_atom_site_label
_atom_site_type_symbol
_atom_site_fract_x
_atom_site_fract_y
_atom_site_fract_z
Cu11	Cu1	0.695150	0.165990	0.707220
Cu21	Cu2	0.151210	0.192020	0.107250
C11	C1	0.384200	0.150100	0.218600
C21	C2	0.941700	0.184600	0.826400
C31	C3	0.466700	0.110600	0.267500
H11	H1	0.547900	0.121600	0.280300
C41	C4	0.044300	0.188000	0.904700
H21	H2	0.113300	0.208600	0.903100
C51	C5	0.241400	0.079100	0.221600
C61	C6	0.848700	0.126800	0.906800
C71	C7	0.113600	0.057400	0.195300
H31	H3	0.059100	0.088700	0.161300
H41	H4	0.103200	0.021800	0.157100
H51	H5	0.095600	0.047700	0.250400
C81	C8	0.740100	0.092900	0.909800
H61	H6	0.676400	0.095200	0.850300
H71	H7	0.712000	0.110300	0.956300
H81	H8	0.761700	0.051000	0.924900
C91	C9	0.411000	0.210600	0.189000
C101	C10	0.936000	0.211900	0.735200
C111	C11	0.559400	0.015300	0.524600
C121	C12	0.525600	0.235600	0.214200
H91	H9	0.593800	0.213300	0.249100
C131	C13	0.033200	0.238600	0.720700
H101	H10	0.107400	0.240900	0.769500
C141	C14	0.566500	0.062900	0.584100
H111	H11	0.496000	0.075700	0.594100
C151	C15	0.330900	0.297700	0.113100
C161	C16	0.823800	0.229100	0.583200
C171	C17	0.761100	0.025000	0.556500
C181	C18	0.224700	0.335800	0.060700
H121	H12	0.151200	0.312200	0.046000
H131	H13	0.219700	0.370200	0.097900
H141	H14	0.234500	0.349700	0.004200
C191	C19	0.711100	0.221700	0.503500
H151	H15	0.649400	0.203700	0.523700
H161	H16	0.726300	0.195800	0.458200
H171	H17	0.683600	0.260700	0.476300
C201	C20	0.875500	0.003900	0.543500
H181	H18	0.857700	0.970000	0.501400
H191	H19	0.933200	0.991600	0.602400
H201	H20	0.909600	0.036400	0.518400
N11	N1	0.265800	0.133600	0.193400
N21	N2	0.840200	0.156500	0.827600
N31	N3	0.447000	0.056800	0.300700
N41	N4	0.043900	0.161100	0.984100
N51	N5	0.324300	0.038100	0.270700
N61	N6	0.946900	0.129100	0.982300
N71	N7	0.310800	0.240300	0.135500
N81	N8	0.829000	0.208500	0.668000
N91	N9	0.657100	0.996100	0.509600
N101	N10	0.537300	0.208400	0.688100
N111	N11	0.024200	0.261400	0.638400
N121	N12	0.669500	0.090800	0.627100
N131	N13	0.440700	0.325000	0.138900
N141	N14	0.917700	0.254400	0.566800
N151	N15	0.770300	0.071100	0.611600
Cu31	Cu3	0.304850	0.665990	0.792780
Cu41	Cu4	0.848790	0.692020	0.392750
C211	C21	0.615800	0.650100	0.281400
C221	C22	0.058300	0.684600	0.673600
C231	C23	0.533300	0.610600	0.232500
H211	H21	0.452100	0.621600	0.219700
C241	C24	0.955700	0.688000	0.595300
H221	H22	0.886700	0.708600	0.596900
C251	C25	0.758600	0.579100	0.278400
C261	C26	0.151300	0.626800	0.593200
C271	C27	0.886400	0.557400	0.304700
H231	H23	0.940900	0.588700	0.338700
H241	H24	0.896800	0.521800	0.342900
H251	H25	0.904400	0.547700	0.249600
C281	C28	0.259900	0.592900	0.590200
H261	H26	0.323600	0.595200	0.649700
H271	H27	0.288000	0.610300	0.543700
H281	H28	0.238300	0.551000	0.575100
C291	C29	0.589000	0.710600	0.311000
C301	C30	0.064000	0.711900	0.764800
C311	C31	0.440600	0.515300	0.975400
C321	C32	0.474400	0.735600	0.285800
H291	H29	0.406200	0.713300	0.250900
C331	C33	0.966800	0.738600	0.779300
H301	H30	0.892600	0.740900	0.730500
C341	C34	0.433500	0.562900	0.915900
H311	H31	0.504000	0.575700	0.905900
C351	C35	0.669100	0.797700	0.386900
C361	C36	0.176200	0.729100	0.916800
C371	C37	0.238900	0.525000	0.943500
C381	C38	0.775300	0.835800	0.439300
H321	H32	0.848800	0.812200	0.454000
H331	H33	0.780300	0.870200	0.402100
H341	H34	0.765500	0.849700	0.495800
C391	C39	0.288900	0.721700	0.996500
H351	H35	0.350600	0.703700	0.976300
H361	H36	0.273700	0.695800	0.041800
H371	H37	0.316400	0.760700	0.023700
C401	C40	0.124500	0.503900	0.956500
H381	H38	0.142300	0.470000	0.998600
H391	H39	0.066800	0.491600	0.897600
H401	H40	0.090400	0.536400	0.981600
N161	N16	0.734200	0.633600	0.306600
N171	N17	0.159800	0.656500	0.672400
N181	N18	0.553000	0.556800	0.199300
N191	N19	0.956100	0.661100	0.515900
N201	N20	0.675700	0.538100	0.229300
N211	N21	0.053100	0.629100	0.517700
N221	N22	0.689200	0.740300	0.364500
N231	N23	0.171000	0.708500	0.832000
N241	N24	0.342900	0.496100	0.990400
N251	N25	0.462700	0.708400	0.811900
N261	N26	0.975800	0.761400	0.861600
N271	N27	0.330500	0.590800	0.872900
N281	N28	0.559300	0.825000	0.361100
N291	N29	0.082300	0.754400	0.933200
N301	N30	0.229700	0.571100	0.888400
Cu51	Cu5	0.304850	0.834010	0.292780
Cu61	Cu6	0.848790	0.807980	0.892750
C411	C41	0.615800	0.849900	0.781400
C421	C42	0.058300	0.815400	0.173600
C431	C43	0.533300	0.889400	0.732500
H411	H41	0.452100	0.878400	0.719700
C441	C44	0.955700	0.812000	0.095300
H421	H42	0.886700	0.791400	0.096900
C451	C45	0.758600	0.920900	0.778400
C461	C46	0.151300	0.873200	0.093200
C471	C47	0.886400	0.942600	0.804700
H431	H43	0.940900	0.911300	0.838700
H441	H44	0.896800	0.978200	0.842900
H451	H45	0.904400	0.952300	0.749600
C481	C48	0.259900	0.907100	0.090200
H461	H46	0.323600	0.904800	0.149700
H471	H47	0.288000	0.889700	0.043700
H481	H48	0.238300	0.949000	0.075100
C491	C49	0.589000	0.789400	0.811000
C501	C50	0.064000	0.788100	0.264800
C511	C51	0.440600	0.984700	0.475400
C521	C52	0.474400	0.764400	0.785800
H491	H49	0.406200	0.786700	0.750900
C531	C53	0.966800	0.761400	0.279300
H501	H50	0.892600	0.759100	0.230500
C541	C54	0.433500	0.937100	0.415900
H511	H51	0.504000	0.924300	0.405900
C551	C55	0.669100	0.702300	0.886900
C561	C56	0.176200	0.770900	0.416800
C571	C57	0.238900	0.975000	0.443500
C581	C58	0.775300	0.664200	0.939300
H521	H52	0.848800	0.687800	0.954000
H531	H53	0.780300	0.629800	0.902100
H541	H54	0.765500	0.650300	0.995800
C591	C59	0.288900	0.778300	0.496500
H551	H55	0.350600	0.796300	0.476300
H561	H56	0.273700	0.804200	0.541800
H571	H57	0.316400	0.739300	0.523700
C601	C60	0.124500	0.996100	0.456500
H581	H58	0.142300	0.030000	0.498600
H591	H59	0.066800	0.008400	0.397600
H601	H60	0.090400	0.963600	0.481600
N311	N31	0.734200	0.866400	0.806600
N321	N32	0.159800	0.843500	0.172400
N331	N33	0.553000	0.943200	0.699300
N341	N34	0.956100	0.838900	0.015900
N351	N35	0.675700	0.961900	0.729300
N361	N36	0.053100	0.870900	0.017700
N371	N37	0.689200	0.759700	0.864500
N381	N38	0.171000	0.791500	0.332000
N391	N39	0.342900	0.003900	0.490400
N401	N40	0.462700	0.791600	0.311900
N411	N41	0.975800	0.738600	0.361600
N421	N42	0.330500	0.909200	0.372900
N431	N43	0.559300	0.675000	0.861100
N441	N44	0.082300	0.745600	0.433200
N451	N45	0.229700	0.928900	0.388400
Cu71	Cu7	0.695150	0.334010	0.207220
Cu81	Cu8	0.151210	0.307980	0.607250
C611	C61	0.384200	0.349900	0.718600
C621	C62	0.941700	0.315400	0.326400
C631	C63	0.466700	0.389400	0.767500
H611	H61	0.547900	0.378400	0.780300
C641	C64	0.044300	0.312000	0.404700
H621	H62	0.113300	0.291400	0.403100
C651	C65	0.241400	0.420900	0.721600
C661	C66	0.848700	0.373200	0.406800
C671	C67	0.113600	0.442600	0.695300
H631	H63	0.059100	0.411300	0.661300
H641	H64	0.103200	0.478200	0.657100
H651	H65	0.095600	0.452300	0.750400
C681	C68	0.740100	0.407100	0.409800
H661	H66	0.676400	0.404800	0.350300
H671	H67	0.712000	0.389700	0.456300
H681	H68	0.761700	0.449000	0.424900
C691	C69	0.411000	0.289400	0.689000
C701	C70	0.936000	0.288100	0.235200
C711	C71	0.559400	0.484700	0.024600
C721	C72	0.525600	0.264400	0.714200
H691	H69	0.593800	0.286700	0.749100
C731	C73	0.033200	0.261400	0.220700
H701	H70	0.107400	0.259100	0.269500
C741	C74	0.566500	0.437100	0.084100
H711	H71	0.496000	0.424300	0.094100
C751	C75	0.330900	0.202300	0.613100
C761	C76	0.823800	0.270900	0.083200
C771	C77	0.761100	0.475000	0.056500
C781	C78	0.224700	0.164200	0.560700
H721	H72	0.151200	0.187800	0.546000
H731	H73	0.219700	0.129800	0.597900
H741	H74	0.234500	0.150300	0.504200
C791	C79	0.711100	0.278300	0.003500
H751	H75	0.649400	0.296300	0.023700
H761	H76	0.726300	0.304200	0.958200
H771	H77	0.683600	0.239300	0.976300
C801	C80	0.875500	0.496100	0.043500
H781	H78	0.857700	0.530000	0.001400
H791	H79	0.933200	0.508400	0.102400
H801	H80	0.909600	0.463600	0.018400
N461	N46	0.265800	0.366400	0.693400
N471	N47	0.840200	0.343500	0.327600
N481	N48	0.447000	0.443200	0.800700
N491	N49	0.043900	0.338900	0.484100
N501	N50	0.324300	0.461900	0.770700
N511	N51	0.946900	0.370900	0.482300
N521	N52	0.310800	0.259700	0.635500
N531	N53	0.829000	0.291500	0.168000
N541	N54	0.657100	0.503900	0.009600
N551	N55	0.537300	0.291600	0.188100
N561	N56	0.024200	0.238600	0.138400
N571	N57	0.669500	0.409200	0.127100
N581	N58	0.440700	0.175000	0.638900
N591	N59	0.917700	0.245600	0.066800
N601	N60	0.770300	0.428900	0.111600
