data_XIFLOP_clean_PM
_symmetry_space_group_name_H-M	'P1'
_cell_length_a	16.178000
_cell_length_b	16.178000
_cell_length_c	6.837700
_cell_angle_alpha	90.000000
_cell_angle_beta	90.000000
_cell_angle_gamma	90.000000
_symmetry_Int_Tables_number 1

loop_
_symmetry_equiv_pos_as_xyz
'x,y,z'

loop_
_atom_site_label
_atom_site_type_symbol
_atom_site_fract_x
_atom_site_fract_y
_atom_site_fract_z
N11	N1	0.318700	0.527700	0.216400
O11	O1	0.329400	0.419700	0.755300
O21	O2	0.426900	0.481400	0.931200
C11	C1	0.353400	0.461500	0.903700
C21	C2	0.293000	0.489300	0.048800
C31	C3	0.179100	0.619100	0.600000
N21	N2	0.181300	0.972300	0.216400
O31	O3	0.170600	0.080300	0.755300
O41	O4	0.073100	0.018600	0.931200
C41	C4	0.146600	0.038500	0.903700
C51	C5	0.207000	0.010700	0.048800
C61	C6	0.320900	0.880900	0.600000
N31	N3	0.972300	0.318700	0.716400
O51	O5	0.080300	0.329400	0.255300
O61	O6	0.018600	0.426900	0.431200
C71	C7	0.038500	0.353400	0.403700
C81	C8	0.010700	0.293000	0.548800
C91	C9	0.880900	0.179100	0.100000
N41	N4	0.527700	0.181300	0.716400
O71	O7	0.419700	0.170600	0.255300
O81	O8	0.481400	0.073100	0.431200
C101	C10	0.461500	0.146600	0.403700
C111	C11	0.489300	0.207000	0.548800
C121	C12	0.619100	0.320900	0.100000
N51	N5	0.681300	0.027700	0.783600
O91	O9	0.670600	0.919700	0.244700
O101	O10	0.573100	0.981400	0.068800
C131	C13	0.646600	0.961500	0.096300
C141	C14	0.707000	0.989300	0.951200
C151	C15	0.820900	0.119100	0.400000
N61	N6	0.818700	0.472300	0.783600
O111	O11	0.829400	0.580300	0.244700
O121	O12	0.926900	0.518600	0.068800
C161	C16	0.853400	0.538500	0.096300
C171	C17	0.793000	0.510700	0.951200
C181	C18	0.679100	0.380900	0.400000
N71	N7	0.027700	0.818700	0.283600
O131	O13	0.919700	0.829400	0.744700
O141	O14	0.981400	0.926900	0.568800
C191	C19	0.961500	0.853400	0.596300
C201	C20	0.989300	0.793000	0.451200
C211	C21	0.119100	0.679100	0.900000
N81	N8	0.472300	0.681300	0.283600
O151	O15	0.580300	0.670600	0.744700
O161	O16	0.518600	0.573100	0.568800
C221	C22	0.538500	0.646600	0.596300
C231	C23	0.510700	0.707000	0.451200
C241	C24	0.380900	0.820900	0.900000
N91	N9	0.681300	0.472300	0.783600
O171	O17	0.670600	0.580300	0.244700
O181	O18	0.573100	0.518600	0.068800
C251	C25	0.646600	0.538500	0.096300
C261	C26	0.707000	0.510700	0.951200
C271	C27	0.820900	0.380900	0.400000
N101	N10	0.818700	0.027700	0.783600
O191	O19	0.829400	0.919700	0.244700
O201	O20	0.926900	0.981400	0.068800
C281	C28	0.853400	0.961500	0.096300
C291	C29	0.793000	0.989300	0.951200
C301	C30	0.679100	0.119100	0.400000
N111	N11	0.027700	0.681300	0.283600
O211	O21	0.919700	0.670600	0.744700
O221	O22	0.981400	0.573100	0.568800
C311	C31	0.961500	0.646600	0.596300
C321	C32	0.989300	0.707000	0.451200
C331	C33	0.119100	0.820900	0.900000
N121	N12	0.472300	0.818700	0.283600
O231	O23	0.580300	0.829400	0.744700
O241	O24	0.518600	0.926900	0.568800
C341	C34	0.538500	0.853400	0.596300
C351	C35	0.510700	0.793000	0.451200
C361	C36	0.380900	0.679100	0.900000
N131	N13	0.318700	0.972300	0.216400
O251	O25	0.329400	0.080300	0.755300
O261	O26	0.426900	0.018600	0.931200
C371	C37	0.353400	0.038500	0.903700
C381	C38	0.293000	0.010700	0.048800
C391	C39	0.179100	0.880900	0.600000
N141	N14	0.181300	0.527700	0.216400
O271	O27	0.170600	0.419700	0.755300
O281	O28	0.073100	0.481400	0.931200
C401	C40	0.146600	0.461500	0.903700
C411	C41	0.207000	0.489300	0.048800
C421	C42	0.320900	0.619100	0.600000
N151	N15	0.972300	0.181300	0.716400
O291	O29	0.080300	0.170600	0.255300
O301	O30	0.018600	0.073100	0.431200
C431	C43	0.038500	0.146600	0.403700
C441	C44	0.010700	0.207000	0.548800
C451	C45	0.880900	0.320900	0.100000
N161	N16	0.527700	0.318700	0.716400
O311	O31	0.419700	0.329400	0.255300
O321	O32	0.481400	0.426900	0.431200
C461	C46	0.461500	0.353400	0.403700
C471	C47	0.489300	0.293000	0.548800
C481	C48	0.619100	0.179100	0.100000
Cd11	Cd1	0.457210	0.542790	0.250000
Cd21	Cd2	0.042790	0.957210	0.250000
Cd31	Cd3	0.957210	0.457210	0.750000
Cd41	Cd4	0.542790	0.042790	0.750000
Cd51	Cd5	0.542790	0.457210	0.750000
Cd61	Cd6	0.957210	0.042790	0.750000
Cd71	Cd7	0.042790	0.542790	0.250000
Cd81	Cd8	0.457210	0.957210	0.250000
C491	C49	0.250000	0.590800	0.504000
C501	C50	0.250000	0.549200	0.312700
C511	C51	0.250000	0.909200	0.504000
C521	C52	0.250000	0.950800	0.312700
C531	C53	0.909200	0.250000	0.004000
C541	C54	0.950800	0.250000	0.812700
C551	C55	0.590800	0.250000	0.004000
C561	C56	0.549200	0.250000	0.812700
C571	C57	0.750000	0.090800	0.496000
C581	C58	0.750000	0.049200	0.687300
C591	C59	0.750000	0.409200	0.496000
C601	C60	0.750000	0.450800	0.687300
C611	C61	0.090800	0.750000	0.996000
C621	C62	0.049200	0.750000	0.187300
C631	C63	0.409200	0.750000	0.996000
C641	C64	0.450800	0.750000	0.187300
