data_XIGHEB_clean_PM
_symmetry_space_group_name_H-M	'P1'
_cell_length_a	35.910000
_cell_length_b	14.833000
_cell_length_c	32.040000
_cell_angle_alpha	90.000000
_cell_angle_beta	102.977000
_cell_angle_gamma	90.000000
_symmetry_Int_Tables_number 1

loop_
_symmetry_equiv_pos_as_xyz
'x,y,z'

loop_
_atom_site_label
_atom_site_type_symbol
_atom_site_fract_x
_atom_site_fract_y
_atom_site_fract_z
I11	I1	0.395480	0.762370	0.904720
I21	I2	0.724750	0.230840	0.789160
I31	I3	0.619280	0.155150	0.693250
I41	I4	0.356550	0.916760	0.010910
I51	I5	0.624820	0.742690	0.043690
I61	I6	0.532430	0.653710	0.115540
Zn11	Zn1	0.664650	0.131700	0.766840
Zn21	Zn2	0.375530	0.906450	0.938620
Zn31	Zn3	0.590000	0.628880	0.081420
C11	C1	0.643000	0.211900	0.844700
H11	H1	0.664600	0.248900	0.844700
C21	C2	0.622700	0.229300	0.874400
H21	H2	0.629600	0.278200	0.893800
C31	C3	0.592000	0.176400	0.876500
C41	C4	0.568300	0.195500	0.908800
C51	C5	0.536600	0.392200	0.012900
H31	H3	0.513800	0.359100	0.011900
C61	C6	0.563400	0.362400	0.989900
C71	C7	0.544000	0.471100	0.037000
H41	H4	0.525700	0.491500	0.052300
C81	C8	0.596700	0.412700	0.991900
H51	H5	0.615400	0.395000	0.976700
C91	C9	0.520400	0.155000	0.940800
C101	C10	0.601300	0.490700	0.017600
H61	H6	0.623900	0.525200	0.019400
C111	C11	0.556100	0.278200	0.963000
C121	C12	0.485800	0.098600	0.942100
C131	C13	0.605400	0.092700	0.817000
H71	H7	0.599400	0.044000	0.797400
C141	C14	0.582800	0.106200	0.847300
H81	H8	0.561600	0.068100	0.847700
C151	C15	0.695740	0.580500	0.738000
C161	C16	0.823500	0.552100	0.895600
H91	H9	0.838100	0.585600	0.918900
C171	C17	0.811600	0.418700	0.858700
H101	H10	0.817100	0.356600	0.856100
C181	C18	0.673800	0.527500	0.700900
C191	C19	0.656600	0.391900	0.659600
H111	H11	0.660600	0.329300	0.655900
C201	C20	0.655500	0.936400	0.746800
H121	H12	0.632900	0.958200	0.728200
C211	C21	0.782700	0.457800	0.827800
H131	H13	0.769400	0.423500	0.804000
C221	C22	0.773450	0.547400	0.832100
C231	C23	0.705660	0.713900	0.773600
C241	C24	0.742590	0.590900	0.799400
C251	C25	0.696300	0.811000	0.774600
C261	C26	0.720200	0.872500	0.801600
H141	H14	0.742500	0.852100	0.821300
C271	C27	0.710700	0.962700	0.799100
H151	H15	0.727200	0.003800	0.817200
C281	C28	0.646100	0.572000	0.669400
H161	H16	0.641900	0.634800	0.671700
C291	C29	0.794800	0.596100	0.866900
H171	H17	0.789600	0.658000	0.870700
C301	C30	0.625200	0.523500	0.635500
H181	H18	0.606600	0.554500	0.614600
C311	C31	0.678800	0.435700	0.695300
H191	H19	0.697200	0.402900	0.715500
C321	C32	0.663300	0.843900	0.747100
H201	H20	0.646400	0.804000	0.728900
C331	C33	0.436200	0.000200	0.905900
H211	H21	0.423900	0.968500	0.880800
C341	C34	0.438000	0.041200	0.975900
H221	H22	0.427500	0.037800	0.000500
C351	C35	0.469800	0.095000	0.977300
H231	H23	0.480500	0.129000	0.002300
C361	C36	0.468100	0.050600	0.904300
H241	H24	0.477900	0.053100	0.879100
N11	N1	0.421380	0.993300	0.940600
N21	N2	0.539440	0.137100	0.909900
N31	N3	0.577240	0.268700	0.933300
N41	N4	0.528200	0.222200	0.970500
N51	N5	0.635200	0.146400	0.815000
N61	N6	0.576340	0.519300	0.039300
N71	N7	0.629820	0.434600	0.630400
N81	N8	0.684760	0.666700	0.740500
N91	N9	0.724050	0.539500	0.766100
N101	N10	0.734450	0.679600	0.804700
N111	N11	0.832040	0.464700	0.892200
N121	N12	0.678930	0.996100	0.772000
I71	I7	0.895480	0.262370	0.904720
I81	I8	0.224750	0.730840	0.789160
I91	I9	0.119280	0.655150	0.693250
I101	I10	0.856550	0.416760	0.010910
I111	I11	0.124820	0.242690	0.043690
I121	I12	0.032430	0.153710	0.115540
Zn41	Zn4	0.164650	0.631700	0.766840
Zn51	Zn5	0.875530	0.406450	0.938620
Zn61	Zn6	0.090000	0.128880	0.081420
C371	C37	0.143000	0.711900	0.844700
H251	H25	0.164600	0.748900	0.844700
C381	C38	0.122700	0.729300	0.874400
H261	H26	0.129600	0.778200	0.893800
C391	C39	0.092000	0.676400	0.876500
C401	C40	0.068300	0.695500	0.908800
C411	C41	0.036600	0.892200	0.012900
H271	H27	0.013800	0.859100	0.011900
C421	C42	0.063400	0.862400	0.989900
C431	C43	0.044000	0.971100	0.037000
H281	H28	0.025700	0.991500	0.052300
C441	C44	0.096700	0.912700	0.991900
H291	H29	0.115400	0.895000	0.976700
C451	C45	0.020400	0.655000	0.940800
C461	C46	0.101300	0.990700	0.017600
H301	H30	0.123900	0.025200	0.019400
C471	C47	0.056100	0.778200	0.963000
C481	C48	0.985800	0.598600	0.942100
C491	C49	0.105400	0.592700	0.817000
H311	H31	0.099400	0.544000	0.797400
C501	C50	0.082800	0.606200	0.847300
H321	H32	0.061600	0.568100	0.847700
C511	C51	0.195740	0.080500	0.738000
C521	C52	0.323500	0.052100	0.895600
H331	H33	0.338100	0.085600	0.918900
C531	C53	0.311600	0.918700	0.858700
H341	H34	0.317100	0.856600	0.856100
C541	C54	0.173800	0.027500	0.700900
C551	C55	0.156600	0.891900	0.659600
H351	H35	0.160600	0.829300	0.655900
C561	C56	0.155500	0.436400	0.746800
H361	H36	0.132900	0.458200	0.728200
C571	C57	0.282700	0.957800	0.827800
H371	H37	0.269400	0.923500	0.804000
C581	C58	0.273450	0.047400	0.832100
C591	C59	0.205660	0.213900	0.773600
C601	C60	0.242590	0.090900	0.799400
C611	C61	0.196300	0.311000	0.774600
C621	C62	0.220200	0.372500	0.801600
H381	H38	0.242500	0.352100	0.821300
C631	C63	0.210700	0.462700	0.799100
H391	H39	0.227200	0.503800	0.817200
C641	C64	0.146100	0.072000	0.669400
H401	H40	0.141900	0.134800	0.671700
C651	C65	0.294800	0.096100	0.866900
H411	H41	0.289600	0.158000	0.870700
C661	C66	0.125200	0.023500	0.635500
H421	H42	0.106600	0.054500	0.614600
C671	C67	0.178800	0.935700	0.695300
H431	H43	0.197200	0.902900	0.715500
C681	C68	0.163300	0.343900	0.747100
H441	H44	0.146400	0.304000	0.728900
C691	C69	0.936200	0.500200	0.905900
H451	H45	0.923900	0.468500	0.880800
C701	C70	0.938000	0.541200	0.975900
H461	H46	0.927500	0.537800	0.000500
C711	C71	0.969800	0.595000	0.977300
H471	H47	0.980500	0.629000	0.002300
C721	C72	0.968100	0.550600	0.904300
H481	H48	0.977900	0.553100	0.879100
N131	N13	0.921380	0.493300	0.940600
N141	N14	0.039440	0.637100	0.909900
N151	N15	0.077240	0.768700	0.933300
N161	N16	0.028200	0.722200	0.970500
N171	N17	0.135200	0.646400	0.815000
N181	N18	0.076340	0.019300	0.039300
N191	N19	0.129820	0.934600	0.630400
N201	N20	0.184760	0.166700	0.740500
N211	N21	0.224050	0.039500	0.766100
N221	N22	0.234450	0.179600	0.804700
N231	N23	0.332040	0.964700	0.892200
N241	N24	0.178930	0.496100	0.772000
I131	I13	0.395480	0.237630	0.404720
I141	I14	0.724750	0.769160	0.289160
I151	I15	0.619280	0.844850	0.193250
I161	I16	0.356550	0.083240	0.510910
I171	I17	0.624820	0.257310	0.543690
I181	I18	0.532430	0.346290	0.615540
Zn71	Zn7	0.664650	0.868300	0.266840
Zn81	Zn8	0.375530	0.093550	0.438620
Zn91	Zn9	0.590000	0.371120	0.581420
C731	C73	0.643000	0.788100	0.344700
H491	H49	0.664600	0.751100	0.344700
C741	C74	0.622700	0.770700	0.374400
H501	H50	0.629600	0.721800	0.393800
C751	C75	0.592000	0.823600	0.376500
C761	C76	0.568300	0.804500	0.408800
C771	C77	0.536600	0.607800	0.512900
H511	H51	0.513800	0.640900	0.511900
C781	C78	0.563400	0.637600	0.489900
C791	C79	0.544000	0.528900	0.537000
H521	H52	0.525700	0.508500	0.552300
C801	C80	0.596700	0.587300	0.491900
H531	H53	0.615400	0.605000	0.476700
C811	C81	0.520400	0.845000	0.440800
C821	C82	0.601300	0.509300	0.517600
H541	H54	0.623900	0.474800	0.519400
C831	C83	0.556100	0.721800	0.463000
C841	C84	0.485800	0.901400	0.442100
C851	C85	0.605400	0.907300	0.317000
H551	H55	0.599400	0.956000	0.297400
C861	C86	0.582800	0.893800	0.347300
H561	H56	0.561600	0.931900	0.347700
C871	C87	0.695740	0.419500	0.238000
C881	C88	0.823500	0.447900	0.395600
H571	H57	0.838100	0.414400	0.418900
C891	C89	0.811600	0.581300	0.358700
H581	H58	0.817100	0.643400	0.356100
C901	C90	0.673800	0.472500	0.200900
C911	C91	0.656600	0.608100	0.159600
H591	H59	0.660600	0.670700	0.155900
C921	C92	0.655500	0.063600	0.246800
H601	H60	0.632900	0.041800	0.228200
C931	C93	0.782700	0.542200	0.327800
H611	H61	0.769400	0.576500	0.304000
C941	C94	0.773450	0.452600	0.332100
C951	C95	0.705660	0.286100	0.273600
C961	C96	0.742590	0.409100	0.299400
C971	C97	0.696300	0.189000	0.274600
C981	C98	0.720200	0.127500	0.301600
H621	H62	0.742500	0.147900	0.321300
C991	C99	0.710700	0.037300	0.299100
H631	H63	0.727200	0.996200	0.317200
C1001	C100	0.646100	0.428000	0.169400
H641	H64	0.641900	0.365200	0.171700
C1011	C101	0.794800	0.403900	0.366900
H651	H65	0.789600	0.342000	0.370700
C1021	C102	0.625200	0.476500	0.135500
H661	H66	0.606600	0.445500	0.114600
C1031	C103	0.678800	0.564300	0.195300
H671	H67	0.697200	0.597100	0.215500
C1041	C104	0.663300	0.156100	0.247100
H681	H68	0.646400	0.196000	0.228900
C1051	C105	0.436200	0.999800	0.405900
H691	H69	0.423900	0.031500	0.380800
C1061	C106	0.438000	0.958800	0.475900
H701	H70	0.427500	0.962200	0.500500
C1071	C107	0.469800	0.905000	0.477300
H711	H71	0.480500	0.871000	0.502300
C1081	C108	0.468100	0.949400	0.404300
H721	H72	0.477900	0.946900	0.379100
N251	N25	0.421380	0.006700	0.440600
N261	N26	0.539440	0.862900	0.409900
N271	N27	0.577240	0.731300	0.433300
N281	N28	0.528200	0.777800	0.470500
N291	N29	0.635200	0.853600	0.315000
N301	N30	0.576340	0.480700	0.539300
N311	N31	0.629820	0.565400	0.130400
N321	N32	0.684760	0.333300	0.240500
N331	N33	0.724050	0.460500	0.266100
N341	N34	0.734450	0.320400	0.304700
N351	N35	0.832040	0.535300	0.392200
N361	N36	0.678930	0.003900	0.272000
I191	I19	0.895480	0.737630	0.404720
I201	I20	0.224750	0.269160	0.289160
I211	I21	0.119280	0.344850	0.193250
I221	I22	0.856550	0.583240	0.510910
I231	I23	0.124820	0.757310	0.543690
I241	I24	0.032430	0.846290	0.615540
Zn101	Zn10	0.164650	0.368300	0.266840
Zn111	Zn11	0.875530	0.593550	0.438620
Zn121	Zn12	0.090000	0.871120	0.581420
C1091	C109	0.143000	0.288100	0.344700
H731	H73	0.164600	0.251100	0.344700
C1101	C110	0.122700	0.270700	0.374400
H741	H74	0.129600	0.221800	0.393800
C1111	C111	0.092000	0.323600	0.376500
C1121	C112	0.068300	0.304500	0.408800
C1131	C113	0.036600	0.107800	0.512900
H751	H75	0.013800	0.140900	0.511900
C1141	C114	0.063400	0.137600	0.489900
C1151	C115	0.044000	0.028900	0.537000
H761	H76	0.025700	0.008500	0.552300
C1161	C116	0.096700	0.087300	0.491900
H771	H77	0.115400	0.105000	0.476700
C1171	C117	0.020400	0.345000	0.440800
C1181	C118	0.101300	0.009300	0.517600
H781	H78	0.123900	0.974800	0.519400
C1191	C119	0.056100	0.221800	0.463000
C1201	C120	0.985800	0.401400	0.442100
C1211	C121	0.105400	0.407300	0.317000
H791	H79	0.099400	0.456000	0.297400
C1221	C122	0.082800	0.393800	0.347300
H801	H80	0.061600	0.431900	0.347700
C1231	C123	0.195740	0.919500	0.238000
C1241	C124	0.323500	0.947900	0.395600
H811	H81	0.338100	0.914400	0.418900
C1251	C125	0.311600	0.081300	0.358700
H821	H82	0.317100	0.143400	0.356100
C1261	C126	0.173800	0.972500	0.200900
C1271	C127	0.156600	0.108100	0.159600
H831	H83	0.160600	0.170700	0.155900
C1281	C128	0.155500	0.563600	0.246800
H841	H84	0.132900	0.541800	0.228200
C1291	C129	0.282700	0.042200	0.327800
H851	H85	0.269400	0.076500	0.304000
C1301	C130	0.273450	0.952600	0.332100
C1311	C131	0.205660	0.786100	0.273600
C1321	C132	0.242590	0.909100	0.299400
C1331	C133	0.196300	0.689000	0.274600
C1341	C134	0.220200	0.627500	0.301600
H861	H86	0.242500	0.647900	0.321300
C1351	C135	0.210700	0.537300	0.299100
H871	H87	0.227200	0.496200	0.317200
C1361	C136	0.146100	0.928000	0.169400
H881	H88	0.141900	0.865200	0.171700
C1371	C137	0.294800	0.903900	0.366900
H891	H89	0.289600	0.842000	0.370700
C1381	C138	0.125200	0.976500	0.135500
H901	H90	0.106600	0.945500	0.114600
C1391	C139	0.178800	0.064300	0.195300
H911	H91	0.197200	0.097100	0.215500
C1401	C140	0.163300	0.656100	0.247100
H921	H92	0.146400	0.696000	0.228900
C1411	C141	0.936200	0.499800	0.405900
H931	H93	0.923900	0.531500	0.380800
C1421	C142	0.938000	0.458800	0.475900
H941	H94	0.927500	0.462200	0.500500
C1431	C143	0.969800	0.405000	0.477300
H951	H95	0.980500	0.371000	0.502300
C1441	C144	0.968100	0.449400	0.404300
H961	H96	0.977900	0.446900	0.379100
N371	N37	0.921380	0.506700	0.440600
N381	N38	0.039440	0.362900	0.409900
N391	N39	0.077240	0.231300	0.433300
N401	N40	0.028200	0.277800	0.470500
N411	N41	0.135200	0.353600	0.315000
N421	N42	0.076340	0.980700	0.539300
N431	N43	0.129820	0.065400	0.130400
N441	N44	0.184760	0.833300	0.240500
N451	N45	0.224050	0.960500	0.266100
N461	N46	0.234450	0.820400	0.304700
N471	N47	0.332040	0.035300	0.392200
N481	N48	0.178930	0.503900	0.272000
I251	I25	0.604520	0.762370	0.595280
I261	I26	0.275250	0.230840	0.710840
I271	I27	0.380720	0.155150	0.806750
I281	I28	0.643450	0.916760	0.489090
I291	I29	0.375180	0.742690	0.456310
I301	I30	0.467570	0.653710	0.384460
Zn131	Zn13	0.335350	0.131700	0.733160
Zn141	Zn14	0.624470	0.906450	0.561380
Zn151	Zn15	0.410000	0.628880	0.418580
C1451	C145	0.357000	0.211900	0.655300
H971	H97	0.335400	0.248900	0.655300
C1461	C146	0.377300	0.229300	0.625600
H981	H98	0.370400	0.278200	0.606200
C1471	C147	0.408000	0.176400	0.623500
C1481	C148	0.431700	0.195500	0.591200
C1491	C149	0.463400	0.392200	0.487100
H991	H99	0.486200	0.359100	0.488100
C1501	C150	0.436600	0.362400	0.510100
C1511	C151	0.456000	0.471100	0.463000
H1001	H100	0.474300	0.491500	0.447700
C1521	C152	0.403300	0.412700	0.508100
H1011	H101	0.384600	0.395000	0.523300
C1531	C153	0.479600	0.155000	0.559200
C1541	C154	0.398700	0.490700	0.482400
H1021	H102	0.376100	0.525200	0.480600
C1551	C155	0.443900	0.278200	0.537000
C1561	C156	0.514200	0.098600	0.557900
C1571	C157	0.394600	0.092700	0.683000
H1031	H103	0.400600	0.044000	0.702600
C1581	C158	0.417200	0.106200	0.652700
H1041	H104	0.438400	0.068100	0.652300
C1591	C159	0.304260	0.580500	0.762000
C1601	C160	0.176500	0.552100	0.604400
H1051	H105	0.161900	0.585600	0.581100
C1611	C161	0.188400	0.418700	0.641300
H1061	H106	0.182900	0.356600	0.643900
C1621	C162	0.326200	0.527500	0.799100
C1631	C163	0.343400	0.391900	0.840400
H1071	H107	0.339400	0.329300	0.844100
C1641	C164	0.344500	0.936400	0.753200
H1081	H108	0.367100	0.958200	0.771800
C1651	C165	0.217300	0.457800	0.672200
H1091	H109	0.230600	0.423500	0.696000
C1661	C166	0.226550	0.547400	0.667900
C1671	C167	0.294340	0.713900	0.726400
C1681	C168	0.257410	0.590900	0.700600
C1691	C169	0.303700	0.811000	0.725400
C1701	C170	0.279800	0.872500	0.698400
H1101	H110	0.257500	0.852100	0.678700
C1711	C171	0.289300	0.962700	0.700900
H1111	H111	0.272800	0.003800	0.682800
C1721	C172	0.353900	0.572000	0.830600
H1121	H112	0.358100	0.634800	0.828300
C1731	C173	0.205200	0.596100	0.633100
H1131	H113	0.210400	0.658000	0.629300
C1741	C174	0.374800	0.523500	0.864500
H1141	H114	0.393400	0.554500	0.885400
C1751	C175	0.321200	0.435700	0.804700
H1151	H115	0.302800	0.402900	0.784500
C1761	C176	0.336700	0.843900	0.752900
H1161	H116	0.353600	0.804000	0.771100
C1771	C177	0.563800	0.000200	0.594100
H1171	H117	0.576100	0.968500	0.619200
C1781	C178	0.562000	0.041200	0.524100
H1181	H118	0.572500	0.037800	0.499500
C1791	C179	0.530200	0.095000	0.522700
H1191	H119	0.519500	0.129000	0.497700
C1801	C180	0.531900	0.050600	0.595700
H1201	H120	0.522100	0.053100	0.620900
N491	N49	0.578620	0.993300	0.559400
N501	N50	0.460560	0.137100	0.590100
N511	N51	0.422760	0.268700	0.566700
N521	N52	0.471800	0.222200	0.529500
N531	N53	0.364800	0.146400	0.685000
N541	N54	0.423660	0.519300	0.460700
N551	N55	0.370180	0.434600	0.869600
N561	N56	0.315240	0.666700	0.759500
N571	N57	0.275950	0.539500	0.733900
N581	N58	0.265550	0.679600	0.695300
N591	N59	0.167960	0.464700	0.607800
N601	N60	0.321070	0.996100	0.728000
I311	I31	0.104520	0.262370	0.595280
I321	I32	0.775250	0.730840	0.710840
I331	I33	0.880720	0.655150	0.806750
I341	I34	0.143450	0.416760	0.489090
I351	I35	0.875180	0.242690	0.456310
I361	I36	0.967570	0.153710	0.384460
Zn161	Zn16	0.835350	0.631700	0.733160
Zn171	Zn17	0.124470	0.406450	0.561380
Zn181	Zn18	0.910000	0.128880	0.418580
C1811	C181	0.857000	0.711900	0.655300
H1211	H121	0.835400	0.748900	0.655300
C1821	C182	0.877300	0.729300	0.625600
H1221	H122	0.870400	0.778200	0.606200
C1831	C183	0.908000	0.676400	0.623500
C1841	C184	0.931700	0.695500	0.591200
C1851	C185	0.963400	0.892200	0.487100
H1231	H123	0.986200	0.859100	0.488100
C1861	C186	0.936600	0.862400	0.510100
C1871	C187	0.956000	0.971100	0.463000
H1241	H124	0.974300	0.991500	0.447700
C1881	C188	0.903300	0.912700	0.508100
H1251	H125	0.884600	0.895000	0.523300
C1891	C189	0.979600	0.655000	0.559200
C1901	C190	0.898700	0.990700	0.482400
H1261	H126	0.876100	0.025200	0.480600
C1911	C191	0.943900	0.778200	0.537000
C1921	C192	0.014200	0.598600	0.557900
C1931	C193	0.894600	0.592700	0.683000
H1271	H127	0.900600	0.544000	0.702600
C1941	C194	0.917200	0.606200	0.652700
H1281	H128	0.938400	0.568100	0.652300
C1951	C195	0.804260	0.080500	0.762000
C1961	C196	0.676500	0.052100	0.604400
H1291	H129	0.661900	0.085600	0.581100
C1971	C197	0.688400	0.918700	0.641300
H1301	H130	0.682900	0.856600	0.643900
C1981	C198	0.826200	0.027500	0.799100
C1991	C199	0.843400	0.891900	0.840400
H1311	H131	0.839400	0.829300	0.844100
C2001	C200	0.844500	0.436400	0.753200
H1321	H132	0.867100	0.458200	0.771800
C2011	C201	0.717300	0.957800	0.672200
H1331	H133	0.730600	0.923500	0.696000
C2021	C202	0.726550	0.047400	0.667900
C2031	C203	0.794340	0.213900	0.726400
C2041	C204	0.757410	0.090900	0.700600
C2051	C205	0.803700	0.311000	0.725400
C2061	C206	0.779800	0.372500	0.698400
H1341	H134	0.757500	0.352100	0.678700
C2071	C207	0.789300	0.462700	0.700900
H1351	H135	0.772800	0.503800	0.682800
C2081	C208	0.853900	0.072000	0.830600
H1361	H136	0.858100	0.134800	0.828300
C2091	C209	0.705200	0.096100	0.633100
H1371	H137	0.710400	0.158000	0.629300
C2101	C210	0.874800	0.023500	0.864500
H1381	H138	0.893400	0.054500	0.885400
C2111	C211	0.821200	0.935700	0.804700
H1391	H139	0.802800	0.902900	0.784500
C2121	C212	0.836700	0.343900	0.752900
H1401	H140	0.853600	0.304000	0.771100
C2131	C213	0.063800	0.500200	0.594100
H1411	H141	0.076100	0.468500	0.619200
C2141	C214	0.062000	0.541200	0.524100
H1421	H142	0.072500	0.537800	0.499500
C2151	C215	0.030200	0.595000	0.522700
H1431	H143	0.019500	0.629000	0.497700
C2161	C216	0.031900	0.550600	0.595700
H1441	H144	0.022100	0.553100	0.620900
N611	N61	0.078620	0.493300	0.559400
N621	N62	0.960560	0.637100	0.590100
N631	N63	0.922760	0.768700	0.566700
N641	N64	0.971800	0.722200	0.529500
N651	N65	0.864800	0.646400	0.685000
N661	N66	0.923660	0.019300	0.460700
N671	N67	0.870180	0.934600	0.869600
N681	N68	0.815240	0.166700	0.759500
N691	N69	0.775950	0.039500	0.733900
N701	N70	0.765550	0.179600	0.695300
N711	N71	0.667960	0.964700	0.607800
N721	N72	0.821070	0.496100	0.728000
I371	I37	0.604520	0.237630	0.095280
I381	I38	0.275250	0.769160	0.210840
I391	I39	0.380720	0.844850	0.306750
I401	I40	0.643450	0.083240	0.989090
I411	I41	0.375180	0.257310	0.956310
I421	I42	0.467570	0.346290	0.884460
Zn191	Zn19	0.335350	0.868300	0.233160
Zn201	Zn20	0.624470	0.093550	0.061380
Zn211	Zn21	0.410000	0.371120	0.918580
C2171	C217	0.357000	0.788100	0.155300
H1451	H145	0.335400	0.751100	0.155300
C2181	C218	0.377300	0.770700	0.125600
H1461	H146	0.370400	0.721800	0.106200
C2191	C219	0.408000	0.823600	0.123500
C2201	C220	0.431700	0.804500	0.091200
C2211	C221	0.463400	0.607800	0.987100
H1471	H147	0.486200	0.640900	0.988100
C2221	C222	0.436600	0.637600	0.010100
C2231	C223	0.456000	0.528900	0.963000
H1481	H148	0.474300	0.508500	0.947700
C2241	C224	0.403300	0.587300	0.008100
H1491	H149	0.384600	0.605000	0.023300
C2251	C225	0.479600	0.845000	0.059200
C2261	C226	0.398700	0.509300	0.982400
H1501	H150	0.376100	0.474800	0.980600
C2271	C227	0.443900	0.721800	0.037000
C2281	C228	0.514200	0.901400	0.057900
C2291	C229	0.394600	0.907300	0.183000
H1511	H151	0.400600	0.956000	0.202600
C2301	C230	0.417200	0.893800	0.152700
H1521	H152	0.438400	0.931900	0.152300
C2311	C231	0.304260	0.419500	0.262000
C2321	C232	0.176500	0.447900	0.104400
H1531	H153	0.161900	0.414400	0.081100
C2331	C233	0.188400	0.581300	0.141300
H1541	H154	0.182900	0.643400	0.143900
C2341	C234	0.326200	0.472500	0.299100
C2351	C235	0.343400	0.608100	0.340400
H1551	H155	0.339400	0.670700	0.344100
C2361	C236	0.344500	0.063600	0.253200
H1561	H156	0.367100	0.041800	0.271800
C2371	C237	0.217300	0.542200	0.172200
H1571	H157	0.230600	0.576500	0.196000
C2381	C238	0.226550	0.452600	0.167900
C2391	C239	0.294340	0.286100	0.226400
C2401	C240	0.257410	0.409100	0.200600
C2411	C241	0.303700	0.189000	0.225400
C2421	C242	0.279800	0.127500	0.198400
H1581	H158	0.257500	0.147900	0.178700
C2431	C243	0.289300	0.037300	0.200900
H1591	H159	0.272800	0.996200	0.182800
C2441	C244	0.353900	0.428000	0.330600
H1601	H160	0.358100	0.365200	0.328300
C2451	C245	0.205200	0.403900	0.133100
H1611	H161	0.210400	0.342000	0.129300
C2461	C246	0.374800	0.476500	0.364500
H1621	H162	0.393400	0.445500	0.385400
C2471	C247	0.321200	0.564300	0.304700
H1631	H163	0.302800	0.597100	0.284500
C2481	C248	0.336700	0.156100	0.252900
H1641	H164	0.353600	0.196000	0.271100
C2491	C249	0.563800	0.999800	0.094100
H1651	H165	0.576100	0.031500	0.119200
C2501	C250	0.562000	0.958800	0.024100
H1661	H166	0.572500	0.962200	0.999500
C2511	C251	0.530200	0.905000	0.022700
H1671	H167	0.519500	0.871000	0.997700
C2521	C252	0.531900	0.949400	0.095700
H1681	H168	0.522100	0.946900	0.120900
N731	N73	0.578620	0.006700	0.059400
N741	N74	0.460560	0.862900	0.090100
N751	N75	0.422760	0.731300	0.066700
N761	N76	0.471800	0.777800	0.029500
N771	N77	0.364800	0.853600	0.185000
N781	N78	0.423660	0.480700	0.960700
N791	N79	0.370180	0.565400	0.369600
N801	N80	0.315240	0.333300	0.259500
N811	N81	0.275950	0.460500	0.233900
N821	N82	0.265550	0.320400	0.195300
N831	N83	0.167960	0.535300	0.107800
N841	N84	0.321070	0.003900	0.228000
I431	I43	0.104520	0.737630	0.095280
I441	I44	0.775250	0.269160	0.210840
I451	I45	0.880720	0.344850	0.306750
I461	I46	0.143450	0.583240	0.989090
I471	I47	0.875180	0.757310	0.956310
I481	I48	0.967570	0.846290	0.884460
Zn221	Zn22	0.835350	0.368300	0.233160
Zn231	Zn23	0.124470	0.593550	0.061380
Zn241	Zn24	0.910000	0.871120	0.918580
C2531	C253	0.857000	0.288100	0.155300
H1691	H169	0.835400	0.251100	0.155300
C2541	C254	0.877300	0.270700	0.125600
H1701	H170	0.870400	0.221800	0.106200
C2551	C255	0.908000	0.323600	0.123500
C2561	C256	0.931700	0.304500	0.091200
C2571	C257	0.963400	0.107800	0.987100
H1711	H171	0.986200	0.140900	0.988100
C2581	C258	0.936600	0.137600	0.010100
C2591	C259	0.956000	0.028900	0.963000
H1721	H172	0.974300	0.008500	0.947700
C2601	C260	0.903300	0.087300	0.008100
H1731	H173	0.884600	0.105000	0.023300
C2611	C261	0.979600	0.345000	0.059200
C2621	C262	0.898700	0.009300	0.982400
H1741	H174	0.876100	0.974800	0.980600
C2631	C263	0.943900	0.221800	0.037000
C2641	C264	0.014200	0.401400	0.057900
C2651	C265	0.894600	0.407300	0.183000
H1751	H175	0.900600	0.456000	0.202600
C2661	C266	0.917200	0.393800	0.152700
H1761	H176	0.938400	0.431900	0.152300
C2671	C267	0.804260	0.919500	0.262000
C2681	C268	0.676500	0.947900	0.104400
H1771	H177	0.661900	0.914400	0.081100
C2691	C269	0.688400	0.081300	0.141300
H1781	H178	0.682900	0.143400	0.143900
C2701	C270	0.826200	0.972500	0.299100
C2711	C271	0.843400	0.108100	0.340400
H1791	H179	0.839400	0.170700	0.344100
C2721	C272	0.844500	0.563600	0.253200
H1801	H180	0.867100	0.541800	0.271800
C2731	C273	0.717300	0.042200	0.172200
H1811	H181	0.730600	0.076500	0.196000
C2741	C274	0.726550	0.952600	0.167900
C2751	C275	0.794340	0.786100	0.226400
C2761	C276	0.757410	0.909100	0.200600
C2771	C277	0.803700	0.689000	0.225400
C2781	C278	0.779800	0.627500	0.198400
H1821	H182	0.757500	0.647900	0.178700
C2791	C279	0.789300	0.537300	0.200900
H1831	H183	0.772800	0.496200	0.182800
C2801	C280	0.853900	0.928000	0.330600
H1841	H184	0.858100	0.865200	0.328300
C2811	C281	0.705200	0.903900	0.133100
H1851	H185	0.710400	0.842000	0.129300
C2821	C282	0.874800	0.976500	0.364500
H1861	H186	0.893400	0.945500	0.385400
C2831	C283	0.821200	0.064300	0.304700
H1871	H187	0.802800	0.097100	0.284500
C2841	C284	0.836700	0.656100	0.252900
H1881	H188	0.853600	0.696000	0.271100
C2851	C285	0.063800	0.499800	0.094100
H1891	H189	0.076100	0.531500	0.119200
C2861	C286	0.062000	0.458800	0.024100
H1901	H190	0.072500	0.462200	0.999500
C2871	C287	0.030200	0.405000	0.022700
H1911	H191	0.019500	0.371000	0.997700
C2881	C288	0.031900	0.449400	0.095700
H1921	H192	0.022100	0.446900	0.120900
N851	N85	0.078620	0.506700	0.059400
N861	N86	0.960560	0.362900	0.090100
N871	N87	0.922760	0.231300	0.066700
N881	N88	0.971800	0.277800	0.029500
N891	N89	0.864800	0.353600	0.185000
N901	N90	0.923660	0.980700	0.960700
N911	N91	0.870180	0.065400	0.369600
N921	N92	0.815240	0.833300	0.259500
N931	N93	0.775950	0.960500	0.233900
N941	N94	0.765550	0.820400	0.195300
N951	N95	0.667960	0.035300	0.107800
N961	N96	0.821070	0.503900	0.228000
