data_XIGWUF_clean_PM
_symmetry_space_group_name_H-M	'P1'
_cell_length_a	13.528500
_cell_length_b	13.528500
_cell_length_c	14.277000
_cell_angle_alpha	61.719700
_cell_angle_beta	61.719700
_cell_angle_gamma	60.000000
_symmetry_Int_Tables_number 1

loop_
_symmetry_equiv_pos_as_xyz
'x,y,z'

loop_
_atom_site_label
_atom_site_type_symbol
_atom_site_fract_x
_atom_site_fract_y
_atom_site_fract_z
Li11	Li1	0.407250	0.092750	0.750000
Li21	Li2	0.092750	0.750000	0.750000
Li31	Li3	0.750000	0.407250	0.750000
Li41	Li4	0.592750	0.907250	0.250000
Li51	Li5	0.907250	0.250000	0.250000
Li61	Li6	0.250000	0.592750	0.250000
Mo11	Mo1	0.000000	0.000000	0.000000
Mo21	Mo2	0.500000	0.500000	0.500000
C11	C1	0.157970	0.050770	0.892390
C21	C2	0.050770	0.898870	0.892390
C31	C3	0.898870	0.157970	0.892390
C41	C4	0.342030	0.601130	0.607610
C51	C5	0.449230	0.342030	0.607610
C61	C6	0.601130	0.449230	0.607610
C71	C7	0.842030	0.949230	0.107610
C81	C8	0.949230	0.101130	0.107610
C91	C9	0.101130	0.842030	0.107610
C101	C10	0.657970	0.398870	0.392390
C111	C11	0.550770	0.657970	0.392390
C121	C12	0.398870	0.550770	0.392390
N11	N1	0.242430	0.076930	0.834910
N21	N2	0.076930	0.845730	0.834910
N31	N3	0.845730	0.242430	0.834910
N41	N4	0.257570	0.654270	0.665090
N51	N5	0.423070	0.257570	0.665090
N61	N6	0.654270	0.423070	0.665090
N71	N7	0.757570	0.923070	0.165090
N81	N8	0.923070	0.154270	0.165090
N91	N9	0.154270	0.757570	0.165090
N101	N10	0.742430	0.345730	0.334910
N111	N11	0.576930	0.742430	0.334910
N121	N12	0.345730	0.576930	0.334910
