data_XIHSAJ01_clean_PM
_symmetry_space_group_name_H-M	'P1'
_cell_length_a	14.123900
_cell_length_b	18.324300
_cell_length_c	20.665700
_cell_angle_alpha	90.000000
_cell_angle_beta	99.121800
_cell_angle_gamma	90.000000
_symmetry_Int_Tables_number 1

loop_
_symmetry_equiv_pos_as_xyz
'x,y,z'

loop_
_atom_site_label
_atom_site_type_symbol
_atom_site_fract_x
_atom_site_fract_y
_atom_site_fract_z
Co11	Co1	0.720190	0.244780	0.187620
O11	O1	0.644820	0.153940	0.156930
O21	O2	0.495670	0.173100	0.177390
O31	O3	0.632550	0.312510	0.129350
O41	O4	0.508640	0.334480	0.182600
O51	O5	0.788470	0.193290	0.277250
O61	O6	0.654840	0.256120	0.274480
C11	C1	0.556000	0.143990	0.147510
C21	C2	0.518800	0.091020	0.092910
C31	C3	0.420600	0.088160	0.067750
H11	H1	0.376900	0.117200	0.087100
C41	C4	0.387100	0.044270	0.015990
H21	H2	0.320500	0.043800	0.999100
C51	C5	0.581700	0.048420	0.066180
H31	H3	0.648100	0.050600	0.083400
C61	C6	0.549300	0.000890	0.012970
C71	C7	0.558500	0.347030	0.139390
C81	C8	0.527700	0.409500	0.093230
C91	C9	0.457200	0.459090	0.107990
H41	H4	0.431200	0.453400	0.147400
C101	C10	0.426200	0.514920	0.066410
H51	H5	0.378900	0.547700	0.077100
C111	C11	0.566000	0.418200	0.036880
H61	H6	0.613700	0.385100	0.027300
C121	C12	0.535800	0.475370	0.992840
C131	C13	0.725900	0.222040	0.306570
C141	C14	0.740500	0.220780	0.379830
C151	C15	0.803000	0.169020	0.414180
H71	H7	0.832600	0.133500	0.390600
C161	C16	0.821300	0.169430	0.481170
H81	H8	0.861800	0.133100	0.503700
C171	C17	0.698600	0.272350	0.413360
H91	H9	0.654800	0.306000	0.389900
C181	C18	0.719100	0.276810	0.482870
Co21	Co2	0.220190	0.744780	0.187620
O71	O7	0.144820	0.653940	0.156930
O81	O8	0.995670	0.673100	0.177390
O91	O9	0.132550	0.812510	0.129350
O101	O10	0.008640	0.834480	0.182600
O111	O11	0.288470	0.693290	0.277250
O121	O12	0.154840	0.756120	0.274480
C191	C19	0.056000	0.643990	0.147510
C201	C20	0.018800	0.591020	0.092910
C211	C21	0.920600	0.588160	0.067750
H101	H10	0.876900	0.617200	0.087100
C221	C22	0.887100	0.544270	0.015990
H111	H11	0.820500	0.543800	0.999100
C231	C23	0.081700	0.548420	0.066180
H121	H12	0.148100	0.550600	0.083400
C241	C24	0.049300	0.500890	0.012970
C251	C25	0.058500	0.847030	0.139390
C261	C26	0.027700	0.909500	0.093230
C271	C27	0.957200	0.959090	0.107990
H131	H13	0.931200	0.953400	0.147400
C281	C28	0.926200	0.014920	0.066410
H141	H14	0.878900	0.047700	0.077100
C291	C29	0.066000	0.918200	0.036880
H151	H15	0.113700	0.885100	0.027300
C301	C30	0.035800	0.975370	0.992840
C311	C31	0.225900	0.722040	0.306570
C321	C32	0.240500	0.720780	0.379830
C331	C33	0.303000	0.669020	0.414180
H161	H16	0.332600	0.633500	0.390600
C341	C34	0.321300	0.669430	0.481170
H171	H17	0.361800	0.633100	0.503700
C351	C35	0.198600	0.772350	0.413360
H181	H18	0.154800	0.806000	0.389900
C361	C36	0.219100	0.776810	0.482870
Co31	Co3	0.279810	0.244780	0.312380
O131	O13	0.355180	0.153940	0.343070
O141	O14	0.504330	0.173100	0.322610
O151	O15	0.367450	0.312510	0.370650
O161	O16	0.491360	0.334480	0.317400
O171	O17	0.211530	0.193290	0.222750
O181	O18	0.345160	0.256120	0.225520
C371	C37	0.444000	0.143990	0.352490
C381	C38	0.481200	0.091020	0.407090
C391	C39	0.579400	0.088160	0.432250
H191	H19	0.623100	0.117200	0.412900
C401	C40	0.612900	0.044270	0.484010
H201	H20	0.679500	0.043800	0.500900
C411	C41	0.418300	0.048420	0.433820
H211	H21	0.351900	0.050600	0.416600
C421	C42	0.450700	0.000890	0.487030
C431	C43	0.441500	0.347030	0.360610
C441	C44	0.472300	0.409500	0.406770
C451	C45	0.542800	0.459090	0.392010
H221	H22	0.568800	0.453400	0.352600
C461	C46	0.573800	0.514920	0.433590
H231	H23	0.621100	0.547700	0.422900
C471	C47	0.434000	0.418200	0.463120
H241	H24	0.386300	0.385100	0.472700
C481	C48	0.464200	0.475370	0.507160
C491	C49	0.274100	0.222040	0.193430
C501	C50	0.259500	0.220780	0.120170
C511	C51	0.197000	0.169020	0.085820
H251	H25	0.167400	0.133500	0.109400
C521	C52	0.178700	0.169430	0.018830
H261	H26	0.138200	0.133100	0.996300
C531	C53	0.301400	0.272350	0.086640
H271	H27	0.345200	0.306000	0.110100
C541	C54	0.280900	0.276810	0.017130
Co41	Co4	0.779810	0.744780	0.312380
O191	O19	0.855180	0.653940	0.343070
O201	O20	0.004330	0.673100	0.322610
O211	O21	0.867450	0.812510	0.370650
O221	O22	0.991360	0.834480	0.317400
O231	O23	0.711530	0.693290	0.222750
O241	O24	0.845160	0.756120	0.225520
C551	C55	0.944000	0.643990	0.352490
C561	C56	0.981200	0.591020	0.407090
C571	C57	0.079400	0.588160	0.432250
H281	H28	0.123100	0.617200	0.412900
C581	C58	0.112900	0.544270	0.484010
H291	H29	0.179500	0.543800	0.500900
C591	C59	0.918300	0.548420	0.433820
H301	H30	0.851900	0.550600	0.416600
C601	C60	0.950700	0.500890	0.487030
C611	C61	0.941500	0.847030	0.360610
C621	C62	0.972300	0.909500	0.406770
C631	C63	0.042800	0.959090	0.392010
H311	H31	0.068800	0.953400	0.352600
C641	C64	0.073800	0.014920	0.433590
H321	H32	0.121100	0.047700	0.422900
C651	C65	0.934000	0.918200	0.463120
H331	H33	0.886300	0.885100	0.472700
C661	C66	0.964200	0.975370	0.507160
C671	C67	0.774100	0.722040	0.193430
C681	C68	0.759500	0.720780	0.120170
C691	C69	0.697000	0.669020	0.085820
H341	H34	0.667400	0.633500	0.109400
C701	C70	0.678700	0.669430	0.018830
H351	H35	0.638200	0.633100	0.996300
C711	C71	0.801400	0.772350	0.086640
H361	H36	0.845200	0.806000	0.110100
C721	C72	0.780900	0.776810	0.017130
Co51	Co5	0.279810	0.755220	0.812380
O251	O25	0.355180	0.846060	0.843070
O261	O26	0.504330	0.826900	0.822610
O271	O27	0.367450	0.687490	0.870650
O281	O28	0.491360	0.665520	0.817400
O291	O29	0.211530	0.806710	0.722750
O301	O30	0.345160	0.743880	0.725520
C731	C73	0.444000	0.856010	0.852490
C741	C74	0.481200	0.908980	0.907090
C751	C75	0.579400	0.911840	0.932250
H371	H37	0.623100	0.882800	0.912900
C761	C76	0.612900	0.955730	0.984010
H381	H38	0.679500	0.956200	0.000900
C771	C77	0.418300	0.951580	0.933820
H391	H39	0.351900	0.949400	0.916600
C781	C78	0.450700	0.999110	0.987030
C791	C79	0.441500	0.652970	0.860610
C801	C80	0.472300	0.590500	0.906770
C811	C81	0.542800	0.540910	0.892010
H401	H40	0.568800	0.546600	0.852600
C821	C82	0.573800	0.485080	0.933590
H411	H41	0.621100	0.452300	0.922900
C831	C83	0.434000	0.581800	0.963120
H421	H42	0.386300	0.614900	0.972700
C841	C84	0.464200	0.524630	0.007160
C851	C85	0.274100	0.777960	0.693430
C861	C86	0.259500	0.779220	0.620170
C871	C87	0.197000	0.830980	0.585820
H431	H43	0.167400	0.866500	0.609400
C881	C88	0.178700	0.830570	0.518830
H441	H44	0.138200	0.866900	0.496300
C891	C89	0.301400	0.727650	0.586640
H451	H45	0.345200	0.694000	0.610100
C901	C90	0.280900	0.723190	0.517130
Co61	Co6	0.779810	0.255220	0.812380
O311	O31	0.855180	0.346060	0.843070
O321	O32	0.004330	0.326900	0.822610
O331	O33	0.867450	0.187490	0.870650
O341	O34	0.991360	0.165520	0.817400
O351	O35	0.711530	0.306710	0.722750
O361	O36	0.845160	0.243880	0.725520
C911	C91	0.944000	0.356010	0.852490
C921	C92	0.981200	0.408980	0.907090
C931	C93	0.079400	0.411840	0.932250
H461	H46	0.123100	0.382800	0.912900
C941	C94	0.112900	0.455730	0.984010
H471	H47	0.179500	0.456200	0.000900
C951	C95	0.918300	0.451580	0.933820
H481	H48	0.851900	0.449400	0.916600
C961	C96	0.950700	0.499110	0.987030
C971	C97	0.941500	0.152970	0.860610
C981	C98	0.972300	0.090500	0.906770
C991	C99	0.042800	0.040910	0.892010
H491	H49	0.068800	0.046600	0.852600
C1001	C100	0.073800	0.985080	0.933590
H501	H50	0.121100	0.952300	0.922900
C1011	C101	0.934000	0.081800	0.963120
H511	H51	0.886300	0.114900	0.972700
C1021	C102	0.964200	0.024630	0.007160
C1031	C103	0.774100	0.277960	0.693430
C1041	C104	0.759500	0.279220	0.620170
C1051	C105	0.697000	0.330980	0.585820
H521	H52	0.667400	0.366500	0.609400
C1061	C106	0.678700	0.330570	0.518830
H531	H53	0.638200	0.366900	0.496300
C1071	C107	0.801400	0.227650	0.586640
H541	H54	0.845200	0.194000	0.610100
C1081	C108	0.780900	0.223190	0.517130
Co71	Co7	0.720190	0.755220	0.687620
O371	O37	0.644820	0.846060	0.656930
O381	O38	0.495670	0.826900	0.677390
O391	O39	0.632550	0.687490	0.629350
O401	O40	0.508640	0.665520	0.682600
O411	O41	0.788470	0.806710	0.777250
O421	O42	0.654840	0.743880	0.774480
C1091	C109	0.556000	0.856010	0.647510
C1101	C110	0.518800	0.908980	0.592910
C1111	C111	0.420600	0.911840	0.567750
H551	H55	0.376900	0.882800	0.587100
C1121	C112	0.387100	0.955730	0.515990
H561	H56	0.320500	0.956200	0.499100
C1131	C113	0.581700	0.951580	0.566180
H571	H57	0.648100	0.949400	0.583400
C1141	C114	0.549300	0.999110	0.512970
C1151	C115	0.558500	0.652970	0.639390
C1161	C116	0.527700	0.590500	0.593230
C1171	C117	0.457200	0.540910	0.607990
H581	H58	0.431200	0.546600	0.647400
C1181	C118	0.426200	0.485080	0.566410
H591	H59	0.378900	0.452300	0.577100
C1191	C119	0.566000	0.581800	0.536880
H601	H60	0.613700	0.614900	0.527300
C1201	C120	0.535800	0.524630	0.492840
C1211	C121	0.725900	0.777960	0.806570
C1221	C122	0.740500	0.779220	0.879830
C1231	C123	0.803000	0.830980	0.914180
H611	H61	0.832600	0.866500	0.890600
C1241	C124	0.821300	0.830570	0.981170
H621	H62	0.861800	0.866900	0.003700
C1251	C125	0.698600	0.727650	0.913360
H631	H63	0.654800	0.694000	0.889900
C1261	C126	0.719100	0.723190	0.982870
Co81	Co8	0.220190	0.255220	0.687620
O431	O43	0.144820	0.346060	0.656930
O441	O44	0.995670	0.326900	0.677390
O451	O45	0.132550	0.187490	0.629350
O461	O46	0.008640	0.165520	0.682600
O471	O47	0.288470	0.306710	0.777250
O481	O48	0.154840	0.243880	0.774480
C1271	C127	0.056000	0.356010	0.647510
C1281	C128	0.018800	0.408980	0.592910
C1291	C129	0.920600	0.411840	0.567750
H641	H64	0.876900	0.382800	0.587100
C1301	C130	0.887100	0.455730	0.515990
H651	H65	0.820500	0.456200	0.499100
C1311	C131	0.081700	0.451580	0.566180
H661	H66	0.148100	0.449400	0.583400
C1321	C132	0.049300	0.499110	0.512970
C1331	C133	0.058500	0.152970	0.639390
C1341	C134	0.027700	0.090500	0.593230
C1351	C135	0.957200	0.040910	0.607990
H671	H67	0.931200	0.046600	0.647400
C1361	C136	0.926200	0.985080	0.566410
H681	H68	0.878900	0.952300	0.577100
C1371	C137	0.066000	0.081800	0.536880
H691	H69	0.113700	0.114900	0.527300
C1381	C138	0.035800	0.024630	0.492840
C1391	C139	0.225900	0.277960	0.806570
C1401	C140	0.240500	0.279220	0.879830
C1411	C141	0.303000	0.330980	0.914180
H701	H70	0.332600	0.366500	0.890600
C1421	C142	0.321300	0.330570	0.981170
H711	H71	0.361800	0.366900	0.003700
C1431	C143	0.198600	0.227650	0.913360
H721	H72	0.154800	0.194000	0.889900
C1441	C144	0.219100	0.223190	0.982870
Co91	Co9	0.500000	0.251670	0.250000
Co101	Co10	0.000000	0.751670	0.250000
Co111	Co11	0.500000	0.748330	0.750000
Co121	Co12	0.000000	0.248330	0.750000
