data_XIHSEN_clean_PM
_symmetry_space_group_name_H-M	'P1'
_cell_length_a	11.236300
_cell_length_b	11.236300
_cell_length_c	20.932000
_cell_angle_alpha	95.526500
_cell_angle_beta	95.526500
_cell_angle_gamma	106.977000
_symmetry_Int_Tables_number 1

loop_
_symmetry_equiv_pos_as_xyz
'x,y,z'

loop_
_atom_site_label
_atom_site_type_symbol
_atom_site_fract_x
_atom_site_fract_y
_atom_site_fract_z
Co11	Co1	0.510290	0.023730	0.808390
Co21	Co2	0.976270	0.489710	0.691610
Co31	Co3	0.489710	0.976270	0.191610
Co41	Co4	0.023730	0.510290	0.308390
Co51	Co5	0.751940	0.248060	0.750000
Co61	Co6	0.248060	0.751940	0.250000
H11	H1	0.733600	0.519400	0.904100
H21	H2	0.723000	0.655600	0.990500
H31	H3	0.397800	0.287800	0.922400
H41	H4	0.653600	0.048000	0.609200
H51	H5	0.742100	0.027300	0.505500
H61	H6	0.284200	0.996600	0.605700
H71	H7	0.012300	0.237700	0.530400
H81	H8	0.072200	0.172400	0.423400
H91	H9	0.892000	0.978800	0.646800
H101	H10	0.480600	0.266400	0.595900
H111	H11	0.344400	0.277000	0.509500
H121	H12	0.712200	0.602200	0.577600
H131	H13	0.952000	0.346400	0.890800
H141	H14	0.972700	0.257900	0.994500
H151	H15	0.003400	0.715800	0.894300
H161	H16	0.762300	0.987700	0.969600
H171	H17	0.827600	0.927800	0.076600
H181	H18	0.021200	0.108000	0.853200
H191	H19	0.266400	0.480600	0.095900
H201	H20	0.277000	0.344400	0.009500
H211	H21	0.602200	0.712200	0.077600
H221	H22	0.346400	0.952000	0.390800
H231	H23	0.257900	0.972700	0.494500
H241	H24	0.715800	0.003400	0.394300
H251	H25	0.987700	0.762300	0.469600
H261	H26	0.927800	0.827600	0.576600
H271	H27	0.108000	0.021200	0.353200
H281	H28	0.519400	0.733600	0.404100
H291	H29	0.655600	0.723000	0.490500
H301	H30	0.287800	0.397800	0.422400
H311	H31	0.048000	0.653600	0.109200
H321	H32	0.027300	0.742100	0.005500
H331	H33	0.996600	0.284200	0.105700
H341	H34	0.237700	0.012300	0.030400
H351	H35	0.172400	0.072200	0.923400
H361	H36	0.978800	0.892000	0.146800
C11	C1	0.578500	0.296100	0.850700
C21	C2	0.566400	0.389600	0.905100
C31	C3	0.663300	0.500500	0.925800
C41	C4	0.656900	0.582300	0.977300
C51	C5	0.549500	0.555500	0.010700
C61	C6	0.462200	0.362000	0.936200
C71	C7	0.487200	0.036200	0.690100
C81	C8	0.473500	0.026500	0.618200
C91	C9	0.574400	0.031400	0.585900
C101	C10	0.560000	0.011400	0.517500
C111	C11	0.662900	0.014300	0.482900
C121	C12	0.353000	0.001800	0.583500
C131	C13	0.914800	0.221200	0.640100
C141	C14	0.946000	0.123200	0.594400
C151	C15	0.992600	0.154800	0.538700
C161	C16	0.011700	0.061900	0.492600
C171	C17	0.056600	0.091000	0.433700
C181	C18	0.922500	0.999700	0.608300
C191	C19	0.703900	0.421500	0.649300
C201	C20	0.610400	0.433600	0.594900
C211	C21	0.499500	0.336700	0.574200
C221	C22	0.417700	0.343100	0.522700
C231	C23	0.444500	0.450500	0.489300
C241	C24	0.638000	0.537800	0.563800
C251	C25	0.963800	0.512800	0.809900
C261	C26	0.973500	0.526500	0.881800
C271	C27	0.968600	0.425600	0.914100
C281	C28	0.988600	0.440000	0.982500
C291	C29	0.985700	0.337100	0.017100
C301	C30	0.998200	0.647000	0.916500
C311	C31	0.778800	0.085200	0.859900
C321	C32	0.876800	0.054000	0.905600
C331	C33	0.845200	0.007400	0.961300
C341	C34	0.938100	0.988300	0.007400
C351	C35	0.909000	0.943400	0.066300
C361	C36	0.000300	0.077500	0.891700
C371	C37	0.421500	0.703900	0.149300
C381	C38	0.433600	0.610400	0.094900
C391	C39	0.336700	0.499500	0.074200
C401	C40	0.343100	0.417700	0.022700
C411	C41	0.450500	0.444500	0.989300
C421	C42	0.537800	0.638000	0.063800
C431	C43	0.512800	0.963800	0.309900
C441	C44	0.526500	0.973500	0.381800
C451	C45	0.425600	0.968600	0.414100
C461	C46	0.440000	0.988600	0.482500
C471	C47	0.337100	0.985700	0.517100
C481	C48	0.647000	0.998200	0.416500
C491	C49	0.085200	0.778800	0.359900
C501	C50	0.054000	0.876800	0.405600
C511	C51	0.007400	0.845200	0.461300
C521	C52	0.988300	0.938100	0.507400
C531	C53	0.943400	0.909000	0.566300
C541	C54	0.077500	0.000300	0.391700
C551	C55	0.296100	0.578500	0.350700
C561	C56	0.389600	0.566400	0.405100
C571	C57	0.500500	0.663300	0.425800
C581	C58	0.582300	0.656900	0.477300
C591	C59	0.555500	0.549500	0.510700
C601	C60	0.362000	0.462200	0.436200
C611	C61	0.036200	0.487200	0.190100
C621	C62	0.026500	0.473500	0.118200
C631	C63	0.031400	0.574400	0.085900
C641	C64	0.011400	0.560000	0.017500
C651	C65	0.014300	0.662900	0.982900
C661	C66	0.001800	0.353000	0.083500
C671	C67	0.221200	0.914800	0.140100
C681	C68	0.123200	0.946000	0.094400
C691	C69	0.154800	0.992600	0.038700
C701	C70	0.061900	0.011700	0.992600
C711	C71	0.091000	0.056600	0.933700
C721	C72	0.999700	0.922500	0.108300
O11	O1	0.494200	0.193200	0.840560
O21	O2	0.672540	0.329860	0.821520
O31	O3	0.595620	0.081780	0.723380
O41	O4	0.392070	0.995130	0.717670
O51	O5	0.852050	0.177350	0.684240
O61	O6	0.952700	0.332300	0.629860
O71	O7	0.806800	0.505800	0.659440
O81	O8	0.670140	0.327460	0.678480
O91	O9	0.918220	0.404380	0.776620
O101	O10	0.004870	0.607930	0.782330
O111	O11	0.822650	0.147950	0.815760
O121	O12	0.667700	0.047300	0.870140
O131	O13	0.505800	0.806800	0.159440
O141	O14	0.327460	0.670140	0.178480
O151	O15	0.404380	0.918220	0.276620
O161	O16	0.607930	0.004870	0.282330
O171	O17	0.147950	0.822650	0.315760
O181	O18	0.047300	0.667700	0.370140
O191	O19	0.193200	0.494200	0.340560
O201	O20	0.329860	0.672540	0.321520
O211	O21	0.081780	0.595620	0.223380
O221	O22	0.995130	0.392070	0.217670
O231	O23	0.177350	0.852050	0.184240
O241	O24	0.332300	0.952700	0.129860
