data_XIHSAJ_clean_PM
_symmetry_space_group_name_H-M	'P1'
_cell_length_a	11.663600
_cell_length_b	11.663600
_cell_length_c	20.630000
_cell_angle_alpha	95.450100
_cell_angle_beta	95.450100
_cell_angle_gamma	104.599000
_symmetry_Int_Tables_number 1

loop_
_symmetry_equiv_pos_as_xyz
'x,y,z'

loop_
_atom_site_label
_atom_site_type_symbol
_atom_site_fract_x
_atom_site_fract_y
_atom_site_fract_z
Co11	Co1	0.027630	0.536150	0.313310
Co21	Co2	0.463850	0.972370	0.186690
Co31	Co3	0.972370	0.463850	0.686690
Co41	Co4	0.536150	0.027630	0.813310
Co51	Co5	0.251530	0.748470	0.250000
Co61	Co6	0.748470	0.251530	0.750000
H11	H1	0.903400	0.804200	0.417300
H21	H2	0.220300	0.133500	0.500600
H31	H3	0.238400	0.003200	0.414400
H41	H4	0.521800	0.615800	0.353600
H51	H5	0.664700	0.570300	0.421800
H61	H6	0.274400	0.499800	0.472100
H71	H7	0.462000	0.194400	0.390200
H81	H8	0.494600	0.224200	0.502600
H91	H9	0.462800	0.851000	0.390600
H101	H10	0.195800	0.096600	0.082700
H111	H11	0.866500	0.779700	0.999400
H121	H12	0.996800	0.761600	0.085600
H131	H13	0.384200	0.478200	0.146400
H141	H14	0.429700	0.335300	0.078200
H151	H15	0.500200	0.725600	0.027900
H161	H16	0.805600	0.538000	0.109800
H171	H17	0.775800	0.505400	0.997400
H181	H18	0.149000	0.537200	0.109400
H191	H19	0.096600	0.195800	0.582700
H201	H20	0.779700	0.866500	0.499400
H211	H21	0.761600	0.996800	0.585600
H221	H22	0.478200	0.384200	0.646400
H231	H23	0.335300	0.429700	0.578200
H241	H24	0.725600	0.500200	0.527900
H251	H25	0.538000	0.805600	0.609800
H261	H26	0.505400	0.775800	0.497400
H271	H27	0.537200	0.149000	0.609400
H281	H28	0.804200	0.903400	0.917300
H291	H29	0.133500	0.220300	0.000600
H301	H30	0.003200	0.238400	0.914400
H311	H31	0.615800	0.521800	0.853600
H321	H32	0.570300	0.664700	0.921800
H331	H33	0.499800	0.274400	0.972100
H341	H34	0.194400	0.462000	0.890200
H351	H35	0.224200	0.494600	0.002600
H361	H36	0.851000	0.462800	0.890600
C11	C1	0.088300	0.799500	0.353700
C21	C2	0.071600	0.889200	0.407300
C31	C3	0.966100	0.870100	0.434100
C41	C4	0.156400	0.068200	0.484300
C51	C5	0.167200	0.990000	0.432900
C61	C6	0.951300	0.949500	0.487000
C71	C7	0.288300	0.594100	0.360400
C81	C8	0.382000	0.563600	0.406600
C91	C9	0.501700	0.583900	0.391900
C101	C10	0.587400	0.557400	0.432700
C111	C11	0.559100	0.509900	0.492300
C121	C12	0.353000	0.515800	0.462900
C131	C13	0.445900	0.001700	0.306500
C141	C14	0.459800	0.017600	0.379600
C151	C15	0.469600	0.131600	0.413500
C161	C16	0.490100	0.149500	0.480600
C171	C17	0.471100	0.925900	0.413300
C181	C18	0.504500	0.057300	0.516500
C191	C19	0.200500	0.911700	0.146300
C201	C20	0.110800	0.928400	0.092700
C211	C21	0.129900	0.033900	0.065900
C221	C22	0.931800	0.843600	0.015700
C231	C23	0.010000	0.832800	0.067100
C241	C24	0.050500	0.048700	0.013000
C251	C25	0.405900	0.711700	0.139600
C261	C26	0.436400	0.618000	0.093400
C271	C27	0.416100	0.498300	0.108100
C281	C28	0.442600	0.412600	0.067300
C291	C29	0.490100	0.440900	0.007700
C301	C30	0.484200	0.647000	0.037100
C311	C31	0.998300	0.554100	0.193500
C321	C32	0.982400	0.540200	0.120400
C331	C33	0.868400	0.530400	0.086500
C341	C34	0.850500	0.509900	0.019400
C351	C35	0.074100	0.528900	0.086700
C361	C36	0.942700	0.495500	0.983500
C371	C37	0.911700	0.200500	0.646300
C381	C38	0.928400	0.110800	0.592700
C391	C39	0.033900	0.129900	0.565900
C401	C40	0.843600	0.931800	0.515700
C411	C41	0.832800	0.010000	0.567100
C421	C42	0.048700	0.050500	0.513000
C431	C43	0.711700	0.405900	0.639600
C441	C44	0.618000	0.436400	0.593400
C451	C45	0.498300	0.416100	0.608100
C461	C46	0.412600	0.442600	0.567300
C471	C47	0.440900	0.490100	0.507700
C481	C48	0.647000	0.484200	0.537100
C491	C49	0.554100	0.998300	0.693500
C501	C50	0.540200	0.982400	0.620400
C511	C51	0.530400	0.868400	0.586500
C521	C52	0.509900	0.850500	0.519400
C531	C53	0.528900	0.074100	0.586700
C541	C54	0.495500	0.942700	0.483500
C551	C55	0.799500	0.088300	0.853700
C561	C56	0.889200	0.071600	0.907300
C571	C57	0.870100	0.966100	0.934100
C581	C58	0.068200	0.156400	0.984300
C591	C59	0.990000	0.167200	0.932900
C601	C60	0.949500	0.951300	0.987000
C611	C61	0.594100	0.288300	0.860400
C621	C62	0.563600	0.382000	0.906600
C631	C63	0.583900	0.501700	0.891900
C641	C64	0.557400	0.587400	0.932700
C651	C65	0.509900	0.559100	0.992300
C661	C66	0.515800	0.353000	0.962900
C671	C67	0.001700	0.445900	0.806500
C681	C68	0.017600	0.459800	0.879600
C691	C69	0.131600	0.469600	0.913500
C701	C70	0.149500	0.490100	0.980600
C711	C71	0.925900	0.471100	0.913300
C721	C72	0.057300	0.504500	0.016500
O11	O1	0.177200	0.830800	0.322500
O21	O2	0.011600	0.700600	0.345000
O31	O3	0.324800	0.656600	0.317400
O41	O4	0.182100	0.554500	0.371000
O51	O5	0.410000	0.897000	0.274650
O61	O6	0.479800	0.091400	0.276700
O71	O7	0.169200	0.822800	0.177500
O81	O8	0.299400	0.988400	0.155000
O91	O9	0.343400	0.675200	0.182600
O101	O10	0.445500	0.817900	0.129000
O111	O11	0.103000	0.590000	0.225350
O121	O12	0.908600	0.520200	0.223300
O131	O13	0.822800	0.169200	0.677500
O141	O14	0.988400	0.299400	0.655000
O151	O15	0.675200	0.343400	0.682600
O161	O16	0.817900	0.445500	0.629000
O171	O17	0.590000	0.103000	0.725350
O181	O18	0.520200	0.908600	0.723300
O191	O19	0.830800	0.177200	0.822500
O201	O20	0.700600	0.011600	0.845000
O211	O21	0.656600	0.324800	0.817400
O221	O22	0.554500	0.182100	0.871000
O231	O23	0.897000	0.410000	0.774650
O241	O24	0.091400	0.479800	0.776700
