data_XILLIP_clean_PM
_symmetry_space_group_name_H-M	'P1'
_cell_length_a	21.703000
_cell_length_b	20.062000
_cell_length_c	22.121000
_cell_angle_alpha	90.000000
_cell_angle_beta	108.799000
_cell_angle_gamma	90.000000
_symmetry_Int_Tables_number 1

loop_
_symmetry_equiv_pos_as_xyz
'x,y,z'

loop_
_atom_site_label
_atom_site_type_symbol
_atom_site_fract_x
_atom_site_fract_y
_atom_site_fract_z
Zn11	Zn1	0.139370	0.662550	0.944140
Zn21	Zn2	0.602020	0.862190	0.740170
C11	C1	0.278050	0.422940	0.022730
C21	C2	0.299950	0.406630	0.973310
H11	H1	0.300700	0.438700	0.942000
C31	C3	0.321330	0.340900	0.970010
C41	C4	0.322190	0.294110	0.016740
H21	H2	0.338200	0.250300	0.015200
C51	C5	0.299030	0.313180	0.065450
C61	C6	0.276520	0.377320	0.069810
H31	H3	0.260700	0.389600	0.103600
C71	C7	0.214870	0.525100	0.979680
H41	H4	0.198700	0.510800	0.936500
C81	C8	0.235130	0.583770	0.065620
H51	H5	0.235300	0.619600	0.093800
C91	C9	0.268610	0.526360	0.082930
H61	H6	0.295500	0.514200	0.124600
C101	C10	0.368520	0.362600	0.883400
H71	H7	0.375300	0.409100	0.890700
C111	C11	0.364910	0.262810	0.844240
H81	H8	0.368900	0.226900	0.817800
C121	C12	0.342630	0.257920	0.894320
H91	H9	0.328400	0.218500	0.909700
C131	C13	0.349990	0.226360	0.145000
H101	H10	0.389300	0.222700	0.135100
C141	C14	0.275180	0.212560	0.189580
H111	H11	0.253200	0.196500	0.217500
C151	C15	0.251060	0.258170	0.142740
H121	H12	0.210000	0.279800	0.131600
C161	C16	0.045560	0.643680	0.144920
C171	C17	0.015550	0.581540	0.134850
H131	H13	0.010200	0.557700	0.096400
C181	C18	0.993520	0.554910	0.182160
C191	C19	0.000120	0.589710	0.238230
H141	H14	0.983800	0.571800	0.269800
C201	C20	0.030690	0.650490	0.246950
C211	C21	0.053500	0.679410	0.200560
H151	H15	0.073700	0.722000	0.207000
C221	C22	0.091050	0.641760	0.055340
H161	H16	0.096600	0.594900	0.054000
C231	C23	0.089130	0.747610	0.034640
H171	H17	0.093900	0.788800	0.015400
C241	C24	0.064300	0.740560	0.082720
H181	H18	0.048600	0.775100	0.103300
C251	C25	0.932250	0.460920	0.116020
H191	H19	0.929900	0.478800	0.075600
C261	C26	0.920890	0.396750	0.190210
H201	H20	0.908300	0.360000	0.210700
C271	C27	0.954810	0.449960	0.220190
H211	H21	0.970500	0.457700	0.264900
C281	C28	0.089480	0.723790	0.337970
H221	H22	0.129400	0.725900	0.328900
C291	C29	0.015520	0.739480	0.381780
H231	H23	0.993700	0.754800	0.410100
C301	C30	0.989510	0.697810	0.331650
H241	H24	0.946900	0.679400	0.318200
C311	C31	0.327860	0.702160	0.835170
C321	C32	0.360300	0.755710	0.819050
H251	H25	0.359100	0.798900	0.836200
C331	C33	0.394680	0.743370	0.776540
C341	C34	0.395610	0.680860	0.749710
H261	H26	0.418200	0.673600	0.719900
C351	C35	0.362410	0.629180	0.767870
C361	C36	0.328490	0.638550	0.810350
H271	H27	0.306300	0.602700	0.822300
C371	C37	0.239970	0.678270	0.880720
H281	H28	0.220800	0.642600	0.852800
C381	C38	0.260620	0.752520	0.955570
H291	H29	0.257400	0.778200	0.990500
C391	C39	0.306300	0.760370	0.927630
H301	H30	0.340600	0.792100	0.938500
C401	C40	0.490420	0.788100	0.755070
H311	H31	0.513500	0.747100	0.760500
C411	C41	0.463760	0.892820	0.738210
H321	H32	0.466000	0.939000	0.729600
C421	C42	0.413120	0.862150	0.748980
H331	H33	0.373500	0.882200	0.749100
C431	C43	0.374420	0.507650	0.775180
H341	H34	0.376600	0.504100	0.818700
C441	C44	0.375370	0.483460	0.679920
H351	H35	0.378600	0.459200	0.644200
C451	C45	0.365000	0.550090	0.681380
H361	H36	0.359000	0.580700	0.647200
N11	N1	0.200570	0.583020	0.001010
N21	N2	0.255780	0.489040	0.027990
N31	N3	0.381210	0.329400	0.837370
N41	N4	0.344490	0.321680	0.918880
N51	N5	0.336730	0.192800	0.190650
N61	N6	0.299610	0.266770	0.114150
N71	N7	0.106750	0.685390	0.017420
N81	N8	0.066030	0.673720	0.096280
N91	N9	0.907010	0.403860	0.124640
N101	N10	0.962340	0.491080	0.173150
N111	N11	0.077610	0.756130	0.385610
N121	N12	0.037340	0.687740	0.304260
N131	N13	0.218580	0.701270	0.926160
N141	N14	0.293600	0.713010	0.879510
N151	N15	0.512430	0.846100	0.741730
N161	N16	0.430120	0.796050	0.759740
N171	N17	0.380420	0.456860	0.738630
N181	N18	0.364830	0.564300	0.741720
Zn31	Zn3	0.860630	0.162550	0.555860
Zn41	Zn4	0.397980	0.362190	0.759820
C461	C46	0.721950	0.922940	0.477270
C471	C47	0.700050	0.906630	0.526690
H371	H37	0.699300	0.938700	0.558000
C481	C48	0.678670	0.840900	0.529990
C491	C49	0.677810	0.794110	0.483260
H381	H38	0.661800	0.750300	0.484800
C501	C50	0.700970	0.813180	0.434550
C511	C51	0.723480	0.877320	0.430190
H391	H39	0.739300	0.889600	0.396400
C521	C52	0.785130	0.025100	0.520320
H401	H40	0.801300	0.010800	0.563500
C531	C53	0.764870	0.083770	0.434380
H411	H41	0.764700	0.119600	0.406200
C541	C54	0.731390	0.026360	0.417070
H421	H42	0.704500	0.014200	0.375400
C551	C55	0.631480	0.862600	0.616600
H431	H43	0.624700	0.909100	0.609300
C561	C56	0.635090	0.762810	0.655760
H441	H44	0.631100	0.726900	0.682200
C571	C57	0.657370	0.757920	0.605680
H451	H45	0.671600	0.718500	0.590300
C581	C58	0.650010	0.726360	0.355000
H461	H46	0.610700	0.722700	0.364900
C591	C59	0.724820	0.712560	0.310420
H471	H47	0.746800	0.696500	0.282500
C601	C60	0.748940	0.758170	0.357260
H481	H48	0.790000	0.779800	0.368400
C611	C61	0.954440	0.143680	0.355080
C621	C62	0.984450	0.081540	0.365150
H491	H49	0.989800	0.057700	0.403600
C631	C63	0.006480	0.054910	0.317840
C641	C64	0.999880	0.089710	0.261770
H501	H50	0.016200	0.071800	0.230200
C651	C65	0.969310	0.150490	0.253050
C661	C66	0.946500	0.179410	0.299440
H511	H51	0.926300	0.222000	0.293000
C671	C67	0.908950	0.141760	0.444660
H521	H52	0.903400	0.094900	0.446000
C681	C68	0.910870	0.247610	0.465360
H531	H53	0.906100	0.288800	0.484600
C691	C69	0.935700	0.240560	0.417280
H541	H54	0.951400	0.275100	0.396700
C701	C70	0.067750	0.960920	0.383980
H551	H55	0.070100	0.978800	0.424400
C711	C71	0.079110	0.896750	0.309790
H561	H56	0.091700	0.860000	0.289300
C721	C72	0.045190	0.949960	0.279810
H571	H57	0.029500	0.957700	0.235100
C731	C73	0.910520	0.223790	0.162030
H581	H58	0.870600	0.225900	0.171100
C741	C74	0.984480	0.239480	0.118220
H591	H59	0.006300	0.254800	0.089900
C751	C75	0.010490	0.197810	0.168350
H601	H60	0.053100	0.179400	0.181800
C761	C76	0.672140	0.202160	0.664830
C771	C77	0.639700	0.255710	0.680950
H611	H61	0.640900	0.298900	0.663800
C781	C78	0.605320	0.243370	0.723460
C791	C79	0.604390	0.180860	0.750290
H621	H62	0.581800	0.173600	0.780100
C801	C80	0.637590	0.129180	0.732130
C811	C81	0.671510	0.138550	0.689650
H631	H63	0.693700	0.102700	0.677700
C821	C82	0.760030	0.178270	0.619280
H641	H64	0.779200	0.142600	0.647200
C831	C83	0.739380	0.252520	0.544430
H651	H65	0.742600	0.278200	0.509500
C841	C84	0.693700	0.260370	0.572370
H661	H66	0.659400	0.292100	0.561500
C851	C85	0.509580	0.288100	0.744930
H671	H67	0.486500	0.247100	0.739500
C861	C86	0.536240	0.392820	0.761790
H681	H68	0.534000	0.439000	0.770400
C871	C87	0.586880	0.362150	0.751020
H691	H69	0.626500	0.382200	0.750900
C881	C88	0.625580	0.007650	0.724820
H701	H70	0.623400	0.004100	0.681300
C891	C89	0.624630	0.983460	0.820080
H711	H71	0.621400	0.959200	0.855800
C901	C90	0.635000	0.050090	0.818620
H721	H72	0.641000	0.080700	0.852800
N191	N19	0.799430	0.083020	0.498990
N201	N20	0.744220	0.989040	0.472010
N211	N21	0.618790	0.829400	0.662630
N221	N22	0.655510	0.821680	0.581120
N231	N23	0.663270	0.692800	0.309350
N241	N24	0.700390	0.766770	0.385850
N251	N25	0.893250	0.185390	0.482580
N261	N26	0.933970	0.173720	0.403720
N271	N27	0.092990	0.903860	0.375360
N281	N28	0.037660	0.991080	0.326850
N291	N29	0.922390	0.256130	0.114390
N301	N30	0.962660	0.187740	0.195740
N311	N31	0.781420	0.201270	0.573840
N321	N32	0.706400	0.213010	0.620490
N331	N33	0.487570	0.346100	0.758270
N341	N34	0.569880	0.296050	0.740260
N351	N35	0.619580	0.956860	0.761370
N361	N36	0.635170	0.064300	0.758280
Zn51	Zn5	0.860630	0.337450	0.055860
Zn61	Zn6	0.397980	0.137810	0.259820
C911	C91	0.721950	0.577060	0.977270
C921	C92	0.700050	0.593370	0.026690
H731	H73	0.699300	0.561300	0.058000
C931	C93	0.678670	0.659100	0.029990
C941	C94	0.677810	0.705890	0.983260
H741	H74	0.661800	0.749700	0.984800
C951	C95	0.700970	0.686820	0.934550
C961	C96	0.723480	0.622680	0.930190
H751	H75	0.739300	0.610400	0.896400
C971	C97	0.785130	0.474900	0.020320
H761	H76	0.801300	0.489200	0.063500
C981	C98	0.764870	0.416230	0.934380
H771	H77	0.764700	0.380400	0.906200
C991	C99	0.731390	0.473640	0.917070
H781	H78	0.704500	0.485800	0.875400
C1001	C100	0.631480	0.637400	0.116600
H791	H79	0.624700	0.590900	0.109300
C1011	C101	0.635090	0.737190	0.155760
H801	H80	0.631100	0.773100	0.182200
C1021	C102	0.657370	0.742080	0.105680
H811	H81	0.671600	0.781500	0.090300
C1031	C103	0.650010	0.773640	0.855000
H821	H82	0.610700	0.777300	0.864900
C1041	C104	0.724820	0.787440	0.810420
H831	H83	0.746800	0.803500	0.782500
C1051	C105	0.748940	0.741830	0.857260
H841	H84	0.790000	0.720200	0.868400
C1061	C106	0.954440	0.356320	0.855080
C1071	C107	0.984450	0.418460	0.865150
H851	H85	0.989800	0.442300	0.903600
C1081	C108	0.006480	0.445090	0.817840
C1091	C109	0.999880	0.410290	0.761770
H861	H86	0.016200	0.428200	0.730200
C1101	C110	0.969310	0.349510	0.753050
C1111	C111	0.946500	0.320590	0.799440
H871	H87	0.926300	0.278000	0.793000
C1121	C112	0.908950	0.358240	0.944660
H881	H88	0.903400	0.405100	0.946000
C1131	C113	0.910870	0.252390	0.965360
H891	H89	0.906100	0.211200	0.984600
C1141	C114	0.935700	0.259440	0.917280
H901	H90	0.951400	0.224900	0.896700
C1151	C115	0.067750	0.539080	0.883980
H911	H91	0.070100	0.521200	0.924400
C1161	C116	0.079110	0.603250	0.809790
H921	H92	0.091700	0.640000	0.789300
C1171	C117	0.045190	0.550040	0.779810
H931	H93	0.029500	0.542300	0.735100
C1181	C118	0.910520	0.276210	0.662030
H941	H94	0.870600	0.274100	0.671100
C1191	C119	0.984480	0.260520	0.618220
H951	H95	0.006300	0.245200	0.589900
C1201	C120	0.010490	0.302190	0.668350
H961	H96	0.053100	0.320600	0.681800
C1211	C121	0.672140	0.297840	0.164830
C1221	C122	0.639700	0.244290	0.180950
H971	H97	0.640900	0.201100	0.163800
C1231	C123	0.605320	0.256630	0.223460
C1241	C124	0.604390	0.319140	0.250290
H981	H98	0.581800	0.326400	0.280100
C1251	C125	0.637590	0.370820	0.232130
C1261	C126	0.671510	0.361450	0.189650
H991	H99	0.693700	0.397300	0.177700
C1271	C127	0.760030	0.321730	0.119280
H1001	H100	0.779200	0.357400	0.147200
C1281	C128	0.739380	0.247480	0.044430
H1011	H101	0.742600	0.221800	0.009500
C1291	C129	0.693700	0.239630	0.072370
H1021	H102	0.659400	0.207900	0.061500
C1301	C130	0.509580	0.211900	0.244930
H1031	H103	0.486500	0.252900	0.239500
C1311	C131	0.536240	0.107180	0.261790
H1041	H104	0.534000	0.061000	0.270400
C1321	C132	0.586880	0.137850	0.251020
H1051	H105	0.626500	0.117800	0.250900
C1331	C133	0.625580	0.492350	0.224820
H1061	H106	0.623400	0.495900	0.181300
C1341	C134	0.624630	0.516540	0.320080
H1071	H107	0.621400	0.540800	0.355800
C1351	C135	0.635000	0.449910	0.318620
H1081	H108	0.641000	0.419300	0.352800
N371	N37	0.799430	0.416980	0.998990
N381	N38	0.744220	0.510960	0.972010
N391	N39	0.618790	0.670600	0.162630
N401	N40	0.655510	0.678320	0.081120
N411	N41	0.663270	0.807200	0.809350
N421	N42	0.700390	0.733230	0.885850
N431	N43	0.893250	0.314610	0.982580
N441	N44	0.933970	0.326280	0.903720
N451	N45	0.092990	0.596140	0.875360
N461	N46	0.037660	0.508920	0.826850
N471	N47	0.922390	0.243870	0.614390
N481	N48	0.962660	0.312260	0.695740
N491	N49	0.781420	0.298730	0.073840
N501	N50	0.706400	0.286990	0.120490
N511	N51	0.487570	0.153900	0.258270
N521	N52	0.569880	0.203950	0.240260
N531	N53	0.619580	0.543140	0.261370
N541	N54	0.635170	0.435700	0.258280
Zn71	Zn7	0.139370	0.837450	0.444140
Zn81	Zn8	0.602020	0.637810	0.240170
C1361	C136	0.278050	0.077060	0.522730
C1371	C137	0.299950	0.093370	0.473310
H1091	H109	0.300700	0.061300	0.442000
C1381	C138	0.321330	0.159100	0.470010
C1391	C139	0.322190	0.205890	0.516740
H1101	H110	0.338200	0.249700	0.515200
C1401	C140	0.299030	0.186820	0.565450
C1411	C141	0.276520	0.122680	0.569810
H1111	H111	0.260700	0.110400	0.603600
C1421	C142	0.214870	0.974900	0.479680
H1121	H112	0.198700	0.989200	0.436500
C1431	C143	0.235130	0.916230	0.565620
H1131	H113	0.235300	0.880400	0.593800
C1441	C144	0.268610	0.973640	0.582930
H1141	H114	0.295500	0.985800	0.624600
C1451	C145	0.368520	0.137400	0.383400
H1151	H115	0.375300	0.090900	0.390700
C1461	C146	0.364910	0.237190	0.344240
H1161	H116	0.368900	0.273100	0.317800
C1471	C147	0.342630	0.242080	0.394320
H1171	H117	0.328400	0.281500	0.409700
C1481	C148	0.349990	0.273640	0.645000
H1181	H118	0.389300	0.277300	0.635100
C1491	C149	0.275180	0.287440	0.689580
H1191	H119	0.253200	0.303500	0.717500
C1501	C150	0.251060	0.241830	0.642740
H1201	H120	0.210000	0.220200	0.631600
C1511	C151	0.045560	0.856320	0.644920
C1521	C152	0.015550	0.918460	0.634850
H1211	H121	0.010200	0.942300	0.596400
C1531	C153	0.993520	0.945090	0.682160
C1541	C154	0.000120	0.910290	0.738230
H1221	H122	0.983800	0.928200	0.769800
C1551	C155	0.030690	0.849510	0.746950
C1561	C156	0.053500	0.820590	0.700560
H1231	H123	0.073700	0.778000	0.707000
C1571	C157	0.091050	0.858240	0.555340
H1241	H124	0.096600	0.905100	0.554000
C1581	C158	0.089130	0.752390	0.534640
H1251	H125	0.093900	0.711200	0.515400
C1591	C159	0.064300	0.759440	0.582720
H1261	H126	0.048600	0.724900	0.603300
C1601	C160	0.932250	0.039080	0.616020
H1271	H127	0.929900	0.021200	0.575600
C1611	C161	0.920890	0.103250	0.690210
H1281	H128	0.908300	0.140000	0.710700
C1621	C162	0.954810	0.050040	0.720190
H1291	H129	0.970500	0.042300	0.764900
C1631	C163	0.089480	0.776210	0.837970
H1301	H130	0.129400	0.774100	0.828900
C1641	C164	0.015520	0.760520	0.881780
H1311	H131	0.993700	0.745200	0.910100
C1651	C165	0.989510	0.802190	0.831650
H1321	H132	0.946900	0.820600	0.818200
C1661	C166	0.327860	0.797840	0.335170
C1671	C167	0.360300	0.744290	0.319050
H1331	H133	0.359100	0.701100	0.336200
C1681	C168	0.394680	0.756630	0.276540
C1691	C169	0.395610	0.819140	0.249710
H1341	H134	0.418200	0.826400	0.219900
C1701	C170	0.362410	0.870820	0.267870
C1711	C171	0.328490	0.861450	0.310350
H1351	H135	0.306300	0.897300	0.322300
C1721	C172	0.239970	0.821730	0.380720
H1361	H136	0.220800	0.857400	0.352800
C1731	C173	0.260620	0.747480	0.455570
H1371	H137	0.257400	0.721800	0.490500
C1741	C174	0.306300	0.739630	0.427630
H1381	H138	0.340600	0.707900	0.438500
C1751	C175	0.490420	0.711900	0.255070
H1391	H139	0.513500	0.752900	0.260500
C1761	C176	0.463760	0.607180	0.238210
H1401	H140	0.466000	0.561000	0.229600
C1771	C177	0.413120	0.637850	0.248980
H1411	H141	0.373500	0.617800	0.249100
C1781	C178	0.374420	0.992350	0.275180
H1421	H142	0.376600	0.995900	0.318700
C1791	C179	0.375370	0.016540	0.179920
H1431	H143	0.378600	0.040800	0.144200
C1801	C180	0.365000	0.949910	0.181380
H1441	H144	0.359000	0.919300	0.147200
N551	N55	0.200570	0.916980	0.501010
N561	N56	0.255780	0.010960	0.527990
N571	N57	0.381210	0.170600	0.337370
N581	N58	0.344490	0.178320	0.418880
N591	N59	0.336730	0.307200	0.690650
N601	N60	0.299610	0.233230	0.614150
N611	N61	0.106750	0.814610	0.517420
N621	N62	0.066030	0.826280	0.596280
N631	N63	0.907010	0.096140	0.624640
N641	N64	0.962340	0.008920	0.673150
N651	N65	0.077610	0.743870	0.885610
N661	N66	0.037340	0.812260	0.804260
N671	N67	0.218580	0.798730	0.426160
N681	N68	0.293600	0.786990	0.379510
N691	N69	0.512430	0.653900	0.241730
N701	N70	0.430120	0.703950	0.259740
N711	N71	0.380420	0.043140	0.238630
N721	N72	0.364830	0.935700	0.241720
