data_XILSUI_clean_PM
_symmetry_space_group_name_H-M	'P1'
_cell_length_a	22.136000
_cell_length_b	16.647000
_cell_length_c	16.551000
_cell_angle_alpha	90.000000
_cell_angle_beta	114.630000
_cell_angle_gamma	90.000000
_symmetry_Int_Tables_number 1

loop_
_symmetry_equiv_pos_as_xyz
'x,y,z'

loop_
_atom_site_label
_atom_site_type_symbol
_atom_site_fract_x
_atom_site_fract_y
_atom_site_fract_z
O11	O1	0.073900	0.084600	0.622500
O21	O2	0.960000	0.085300	0.561000
O31	O3	0.358300	0.135600	0.545400
C11	C1	0.002500	0.248200	0.960800
H11	H1	0.004000	0.203400	0.928100
C21	C2	0.005100	0.330700	0.937400
C31	C3	0.013300	0.354900	0.860900
C41	C4	0.014300	0.434700	0.838100
C51	C5	0.019500	0.459400	0.758800
H21	H2	0.022400	0.426100	0.715500
C61	C6	0.015500	0.291500	0.798400
C71	C7	0.959700	0.266900	0.734800
H31	H3	0.920200	0.290400	0.730100
C81	C8	0.956300	0.204900	0.671100
H41	H4	0.916300	0.187700	0.626700
C91	C9	0.016000	0.174000	0.681400
C101	C10	0.073800	0.195300	0.746900
H51	H5	0.113000	0.170100	0.753000
C111	C11	0.075100	0.257900	0.808100
H61	H6	0.115000	0.275000	0.852900
C121	C12	0.016000	0.106100	0.615300
C131	C13	0.381000	0.073200	0.532000
C141	C14	0.470800	0.145700	0.507900
H71	H7	0.451300	0.194000	0.512300
C151	C15	0.443400	0.074800	0.516500
O41	O4	0.926100	0.084600	0.377500
O51	O5	0.040000	0.085300	0.439000
O61	O6	0.641700	0.135600	0.454600
C161	C16	0.997500	0.248200	0.039200
H81	H8	0.996000	0.203400	0.071900
C171	C17	0.994900	0.330700	0.062600
C181	C18	0.986700	0.354900	0.139100
C191	C19	0.985700	0.434700	0.161900
C201	C20	0.980500	0.459400	0.241200
H91	H9	0.977600	0.426100	0.284500
C211	C21	0.984500	0.291500	0.201600
C221	C22	0.040300	0.266900	0.265200
H101	H10	0.079800	0.290400	0.269900
C231	C23	0.043700	0.204900	0.328900
H111	H11	0.083700	0.187700	0.373300
C241	C24	0.984000	0.174000	0.318600
C251	C25	0.926200	0.195300	0.253100
H121	H12	0.887000	0.170100	0.247000
C261	C26	0.924900	0.257900	0.191900
H131	H13	0.885000	0.275000	0.147100
C271	C27	0.984000	0.106100	0.384700
C281	C28	0.619000	0.073200	0.468000
C291	C29	0.529200	0.145700	0.492100
H141	H14	0.548700	0.194000	0.487700
C301	C30	0.556600	0.074800	0.483500
O71	O7	0.926100	0.915400	0.377500
O81	O8	0.040000	0.914700	0.439000
O91	O9	0.641700	0.864400	0.454600
C311	C31	0.997500	0.751800	0.039200
H151	H15	0.996000	0.796600	0.071900
C321	C32	0.994900	0.669300	0.062600
C331	C33	0.986700	0.645100	0.139100
C341	C34	0.985700	0.565300	0.161900
C351	C35	0.980500	0.540600	0.241200
H161	H16	0.977600	0.573900	0.284500
C361	C36	0.984500	0.708500	0.201600
C371	C37	0.040300	0.733100	0.265200
H171	H17	0.079800	0.709600	0.269900
C381	C38	0.043700	0.795100	0.328900
H181	H18	0.083700	0.812300	0.373300
C391	C39	0.984000	0.826000	0.318600
C401	C40	0.926200	0.804700	0.253100
H191	H19	0.887000	0.829900	0.247000
C411	C41	0.924900	0.742100	0.191900
H201	H20	0.885000	0.725000	0.147100
C421	C42	0.984000	0.893900	0.384700
C431	C43	0.619000	0.926800	0.468000
C441	C44	0.529200	0.854300	0.492100
H211	H21	0.548700	0.806000	0.487700
C451	C45	0.556600	0.925200	0.483500
O101	O10	0.073900	0.915400	0.622500
O111	O11	0.960000	0.914700	0.561000
O121	O12	0.358300	0.864400	0.545400
C461	C46	0.002500	0.751800	0.960800
H221	H22	0.004000	0.796600	0.928100
C471	C47	0.005100	0.669300	0.937400
C481	C48	0.013300	0.645100	0.860900
C491	C49	0.014300	0.565300	0.838100
C501	C50	0.019500	0.540600	0.758800
H231	H23	0.022400	0.573900	0.715500
C511	C51	0.015500	0.708500	0.798400
C521	C52	0.959700	0.733100	0.734800
H241	H24	0.920200	0.709600	0.730100
C531	C53	0.956300	0.795100	0.671100
H251	H25	0.916300	0.812300	0.626700
C541	C54	0.016000	0.826000	0.681400
C551	C55	0.073800	0.804700	0.746900
H261	H26	0.113000	0.829900	0.753000
C561	C56	0.075100	0.742100	0.808100
H271	H27	0.115000	0.725000	0.852900
C571	C57	0.016000	0.893900	0.615300
C581	C58	0.381000	0.926800	0.532000
C591	C59	0.470800	0.854300	0.507900
H281	H28	0.451300	0.806000	0.512300
C601	C60	0.443400	0.925200	0.516500
Zn11	Zn1	0.073320	0.000000	0.536240
N11	N1	0.165900	0.000000	0.544100
N21	N2	0.355800	0.000000	0.539200
C611	C61	0.218400	0.000000	0.608800
H291	H29	0.214500	0.000000	0.662600
C621	C62	0.286000	0.000000	0.617500
H301	H30	0.322700	0.000000	0.672100
C631	C63	0.290800	0.000000	0.541100
C641	C64	0.238100	0.000000	0.467500
H311	H31	0.242500	0.000000	0.414100
C651	C65	0.172000	0.000000	0.465900
H321	H32	0.134500	0.000000	0.412100
C661	C66	0.468900	0.000000	0.507200
Zn21	Zn2	0.926680	0.000000	0.463760
N31	N3	0.834100	0.000000	0.455900
N41	N4	0.644200	0.000000	0.460800
C671	C67	0.781600	0.000000	0.391200
H331	H33	0.785500	0.000000	0.337400
C681	C68	0.714000	0.000000	0.382500
H341	H34	0.677300	0.000000	0.327900
C691	C69	0.709200	0.000000	0.458900
C701	C70	0.761900	0.000000	0.532500
H351	H35	0.757500	0.000000	0.585900
C711	C71	0.828000	0.000000	0.534100
H361	H36	0.865500	0.000000	0.587900
C721	C72	0.531100	0.000000	0.492800
N51	N5	0.000000	0.381700	0.000000
N61	N6	0.000000	0.618300	0.000000
N71	N7	0.012100	0.500000	0.889300
N81	N8	0.987900	0.500000	0.110700
Mn11	Mn1	0.000000	0.500000	0.000000
O131	O13	0.573900	0.584600	0.622500
O141	O14	0.460000	0.585300	0.561000
O151	O15	0.858300	0.635600	0.545400
C731	C73	0.502500	0.748200	0.960800
H371	H37	0.504000	0.703400	0.928100
C741	C74	0.505100	0.830700	0.937400
C751	C75	0.513300	0.854900	0.860900
C761	C76	0.514300	0.934700	0.838100
C771	C77	0.519500	0.959400	0.758800
H381	H38	0.522400	0.926100	0.715500
C781	C78	0.515500	0.791500	0.798400
C791	C79	0.459700	0.766900	0.734800
H391	H39	0.420200	0.790400	0.730100
C801	C80	0.456300	0.704900	0.671100
H401	H40	0.416300	0.687700	0.626700
C811	C81	0.516000	0.674000	0.681400
C821	C82	0.573800	0.695300	0.746900
H411	H41	0.613000	0.670100	0.753000
C831	C83	0.575100	0.757900	0.808100
H421	H42	0.615000	0.775000	0.852900
C841	C84	0.516000	0.606100	0.615300
C851	C85	0.881000	0.573200	0.532000
C861	C86	0.970800	0.645700	0.507900
H431	H43	0.951300	0.694000	0.512300
C871	C87	0.943400	0.574800	0.516500
O161	O16	0.426100	0.584600	0.377500
O171	O17	0.540000	0.585300	0.439000
O181	O18	0.141700	0.635600	0.454600
C881	C88	0.497500	0.748200	0.039200
H441	H44	0.496000	0.703400	0.071900
C891	C89	0.494900	0.830700	0.062600
C901	C90	0.486700	0.854900	0.139100
C911	C91	0.485700	0.934700	0.161900
C921	C92	0.480500	0.959400	0.241200
H451	H45	0.477600	0.926100	0.284500
C931	C93	0.484500	0.791500	0.201600
C941	C94	0.540300	0.766900	0.265200
H461	H46	0.579800	0.790400	0.269900
C951	C95	0.543700	0.704900	0.328900
H471	H47	0.583700	0.687700	0.373300
C961	C96	0.484000	0.674000	0.318600
C971	C97	0.426200	0.695300	0.253100
H481	H48	0.387000	0.670100	0.247000
C981	C98	0.424900	0.757900	0.191900
H491	H49	0.385000	0.775000	0.147100
C991	C99	0.484000	0.606100	0.384700
C1001	C100	0.119000	0.573200	0.468000
C1011	C101	0.029200	0.645700	0.492100
H501	H50	0.048700	0.694000	0.487700
C1021	C102	0.056600	0.574800	0.483500
O191	O19	0.426100	0.415400	0.377500
O201	O20	0.540000	0.414700	0.439000
O211	O21	0.141700	0.364400	0.454600
C1031	C103	0.497500	0.251800	0.039200
H511	H51	0.496000	0.296600	0.071900
C1041	C104	0.494900	0.169300	0.062600
C1051	C105	0.486700	0.145100	0.139100
C1061	C106	0.485700	0.065300	0.161900
C1071	C107	0.480500	0.040600	0.241200
H521	H52	0.477600	0.073900	0.284500
C1081	C108	0.484500	0.208500	0.201600
C1091	C109	0.540300	0.233100	0.265200
H531	H53	0.579800	0.209600	0.269900
C1101	C110	0.543700	0.295100	0.328900
H541	H54	0.583700	0.312300	0.373300
C1111	C111	0.484000	0.326000	0.318600
C1121	C112	0.426200	0.304700	0.253100
H551	H55	0.387000	0.329900	0.247000
C1131	C113	0.424900	0.242100	0.191900
H561	H56	0.385000	0.225000	0.147100
C1141	C114	0.484000	0.393900	0.384700
C1151	C115	0.119000	0.426800	0.468000
C1161	C116	0.029200	0.354300	0.492100
H571	H57	0.048700	0.306000	0.487700
C1171	C117	0.056600	0.425200	0.483500
O221	O22	0.573900	0.415400	0.622500
O231	O23	0.460000	0.414700	0.561000
O241	O24	0.858300	0.364400	0.545400
C1181	C118	0.502500	0.251800	0.960800
H581	H58	0.504000	0.296600	0.928100
C1191	C119	0.505100	0.169300	0.937400
C1201	C120	0.513300	0.145100	0.860900
C1211	C121	0.514300	0.065300	0.838100
C1221	C122	0.519500	0.040600	0.758800
H591	H59	0.522400	0.073900	0.715500
C1231	C123	0.515500	0.208500	0.798400
C1241	C124	0.459700	0.233100	0.734800
H601	H60	0.420200	0.209600	0.730100
C1251	C125	0.456300	0.295100	0.671100
H611	H61	0.416300	0.312300	0.626700
C1261	C126	0.516000	0.326000	0.681400
C1271	C127	0.573800	0.304700	0.746900
H621	H62	0.613000	0.329900	0.753000
C1281	C128	0.575100	0.242100	0.808100
H631	H63	0.615000	0.225000	0.852900
C1291	C129	0.516000	0.393900	0.615300
C1301	C130	0.881000	0.426800	0.532000
C1311	C131	0.970800	0.354300	0.507900
H641	H64	0.951300	0.306000	0.512300
C1321	C132	0.943400	0.425200	0.516500
Zn31	Zn3	0.573320	0.500000	0.536240
N91	N9	0.665900	0.500000	0.544100
N101	N10	0.855800	0.500000	0.539200
C1331	C133	0.718400	0.500000	0.608800
H651	H65	0.714500	0.500000	0.662600
C1341	C134	0.786000	0.500000	0.617500
H661	H66	0.822700	0.500000	0.672100
C1351	C135	0.790800	0.500000	0.541100
C1361	C136	0.738100	0.500000	0.467500
H671	H67	0.742500	0.500000	0.414100
C1371	C137	0.672000	0.500000	0.465900
H681	H68	0.634500	0.500000	0.412100
C1381	C138	0.968900	0.500000	0.507200
Zn41	Zn4	0.426680	0.500000	0.463760
N111	N11	0.334100	0.500000	0.455900
N121	N12	0.144200	0.500000	0.460800
C1391	C139	0.281600	0.500000	0.391200
H691	H69	0.285500	0.500000	0.337400
C1401	C140	0.214000	0.500000	0.382500
H701	H70	0.177300	0.500000	0.327900
C1411	C141	0.209200	0.500000	0.458900
C1421	C142	0.261900	0.500000	0.532500
H711	H71	0.257500	0.500000	0.585900
C1431	C143	0.328000	0.500000	0.534100
H721	H72	0.365500	0.500000	0.587900
C1441	C144	0.031100	0.500000	0.492800
N131	N13	0.500000	0.881700	0.000000
N141	N14	0.500000	0.118300	0.000000
N151	N15	0.512100	0.000000	0.889300
N161	N16	0.487900	0.000000	0.110700
Mn21	Mn2	0.500000	0.000000	0.000000
