data_XILTAP_clean_PM
_symmetry_space_group_name_H-M	'P1'
_cell_length_a	22.058000
_cell_length_b	16.906800
_cell_length_c	16.240000
_cell_angle_alpha	90.000000
_cell_angle_beta	121.360000
_cell_angle_gamma	90.000000
_symmetry_Int_Tables_number 1

loop_
_symmetry_equiv_pos_as_xyz
'x,y,z'

loop_
_atom_site_label
_atom_site_type_symbol
_atom_site_fract_x
_atom_site_fract_y
_atom_site_fract_z
O11	O1	0.964200	0.082700	0.558900
O21	O2	0.081300	0.084400	0.635100
O31	O3	0.351800	0.134500	0.529300
C11	C1	0.003300	0.254700	0.961700
H11	H1	0.006100	0.209800	0.930700
C21	C2	0.005200	0.331000	0.935300
C31	C3	0.019900	0.355200	0.866600
C41	C4	0.025100	0.433700	0.843200
C51	C5	0.038600	0.462100	0.772000
H21	H2	0.046400	0.430500	0.731400
C61	C6	0.020500	0.293600	0.801800
C71	C7	0.963000	0.263000	0.728500
H31	H3	0.919400	0.283100	0.714600
C81	C8	0.962700	0.203500	0.670800
H41	H4	0.919900	0.183700	0.620900
C91	C9	0.025300	0.173500	0.686700
C101	C10	0.082300	0.201500	0.758300
H51	H5	0.125300	0.179500	0.772300
C111	C11	0.083900	0.263400	0.817100
H61	H6	0.127000	0.283800	0.865700
C121	C12	0.022800	0.107500	0.622500
C131	C13	0.379600	0.074900	0.526500
C141	C14	0.468100	0.140800	0.505800
H71	H7	0.446900	0.187700	0.507800
C151	C15	0.443600	0.071400	0.512900
O41	O4	0.035800	0.082700	0.441100
O51	O5	0.918700	0.084400	0.364900
O61	O6	0.648200	0.134500	0.470700
C161	C16	0.996700	0.254700	0.038300
H81	H8	0.993900	0.209800	0.069300
C171	C17	0.994800	0.331000	0.064700
C181	C18	0.980100	0.355200	0.133400
C191	C19	0.974900	0.433700	0.156800
C201	C20	0.961400	0.462100	0.228000
H91	H9	0.953600	0.430500	0.268600
C211	C21	0.979500	0.293600	0.198200
C221	C22	0.037000	0.263000	0.271500
H101	H10	0.080600	0.283100	0.285400
C231	C23	0.037300	0.203500	0.329200
H111	H11	0.080100	0.183700	0.379100
C241	C24	0.974700	0.173500	0.313300
C251	C25	0.917700	0.201500	0.241700
H121	H12	0.874700	0.179500	0.227700
C261	C26	0.916100	0.263400	0.182900
H131	H13	0.873000	0.283800	0.134300
C271	C27	0.977200	0.107500	0.377500
C281	C28	0.620400	0.074900	0.473500
C291	C29	0.531900	0.140800	0.494200
H141	H14	0.553100	0.187700	0.492200
C301	C30	0.556400	0.071400	0.487100
O71	O7	0.035800	0.917300	0.441100
O81	O8	0.918700	0.915600	0.364900
O91	O9	0.648200	0.865500	0.470700
C311	C31	0.996700	0.745300	0.038300
H151	H15	0.993900	0.790200	0.069300
C321	C32	0.994800	0.669000	0.064700
C331	C33	0.980100	0.644800	0.133400
C341	C34	0.974900	0.566300	0.156800
C351	C35	0.961400	0.537900	0.228000
H161	H16	0.953600	0.569500	0.268600
C361	C36	0.979500	0.706400	0.198200
C371	C37	0.037000	0.737000	0.271500
H171	H17	0.080600	0.716900	0.285400
C381	C38	0.037300	0.796500	0.329200
H181	H18	0.080100	0.816300	0.379100
C391	C39	0.974700	0.826500	0.313300
C401	C40	0.917700	0.798500	0.241700
H191	H19	0.874700	0.820500	0.227700
C411	C41	0.916100	0.736600	0.182900
H201	H20	0.873000	0.716200	0.134300
C421	C42	0.977200	0.892500	0.377500
C431	C43	0.620400	0.925100	0.473500
C441	C44	0.531900	0.859200	0.494200
H211	H21	0.553100	0.812300	0.492200
C451	C45	0.556400	0.928600	0.487100
O101	O10	0.964200	0.917300	0.558900
O111	O11	0.081300	0.915600	0.635100
O121	O12	0.351800	0.865500	0.529300
C461	C46	0.003300	0.745300	0.961700
H221	H22	0.006100	0.790200	0.930700
C471	C47	0.005200	0.669000	0.935300
C481	C48	0.019900	0.644800	0.866600
C491	C49	0.025100	0.566300	0.843200
C501	C50	0.038600	0.537900	0.772000
H231	H23	0.046400	0.569500	0.731400
C511	C51	0.020500	0.706400	0.801800
C521	C52	0.963000	0.737000	0.728500
H241	H24	0.919400	0.716900	0.714600
C531	C53	0.962700	0.796500	0.670800
H251	H25	0.919900	0.816300	0.620900
C541	C54	0.025300	0.826500	0.686700
C551	C55	0.082300	0.798500	0.758300
H261	H26	0.125300	0.820500	0.772300
C561	C56	0.083900	0.736600	0.817100
H271	H27	0.127000	0.716200	0.865700
C571	C57	0.022800	0.892500	0.622500
C581	C58	0.379600	0.925100	0.526500
C591	C59	0.468100	0.859200	0.505800
H281	H28	0.446900	0.812300	0.507800
C601	C60	0.443600	0.928600	0.512900
Zn11	Zn1	0.078200	0.000000	0.547940
N11	N1	0.172200	0.000000	0.552400
N21	N2	0.356300	0.000000	0.536200
C611	C61	0.233200	0.000000	0.627800
H291	H29	0.235900	0.000000	0.686900
C621	C62	0.300800	0.000000	0.629000
H301	H30	0.344500	0.000000	0.686500
C631	C63	0.296100	0.000000	0.546800
C641	C64	0.230200	0.000000	0.462700
H311	H31	0.227700	0.000000	0.403800
C651	C65	0.164100	0.000000	0.463800
H321	H32	0.119600	0.000000	0.407500
C661	C66	0.467700	0.000000	0.503800
Zn21	Zn2	0.921800	0.000000	0.452060
N31	N3	0.827800	0.000000	0.447600
N41	N4	0.643700	0.000000	0.463800
C671	C67	0.766800	0.000000	0.372200
H331	H33	0.764100	0.000000	0.313100
C681	C68	0.699200	0.000000	0.371000
H341	H34	0.655500	0.000000	0.313500
C691	C69	0.703900	0.000000	0.453200
C701	C70	0.769800	0.000000	0.537300
H351	H35	0.772300	0.000000	0.596200
C711	C71	0.835900	0.000000	0.536200
H361	H36	0.880400	0.000000	0.592500
C721	C72	0.532300	0.000000	0.496200
Mn11	Mn1	0.000000	0.500000	0.000000
N51	N5	0.017900	0.500000	0.891400
N61	N6	0.982100	0.500000	0.108600
N71	N7	0.000000	0.380700	0.000000
N81	N8	0.000000	0.619300	0.000000
O131	O13	0.464200	0.582700	0.558900
O141	O14	0.581300	0.584400	0.635100
O151	O15	0.851800	0.634500	0.529300
C731	C73	0.503300	0.754700	0.961700
H371	H37	0.506100	0.709800	0.930700
C741	C74	0.505200	0.831000	0.935300
C751	C75	0.519900	0.855200	0.866600
C761	C76	0.525100	0.933700	0.843200
C771	C77	0.538600	0.962100	0.772000
H381	H38	0.546400	0.930500	0.731400
C781	C78	0.520500	0.793600	0.801800
C791	C79	0.463000	0.763000	0.728500
H391	H39	0.419400	0.783100	0.714600
C801	C80	0.462700	0.703500	0.670800
H401	H40	0.419900	0.683700	0.620900
C811	C81	0.525300	0.673500	0.686700
C821	C82	0.582300	0.701500	0.758300
H411	H41	0.625300	0.679500	0.772300
C831	C83	0.583900	0.763400	0.817100
H421	H42	0.627000	0.783800	0.865700
C841	C84	0.522800	0.607500	0.622500
C851	C85	0.879600	0.574900	0.526500
C861	C86	0.968100	0.640800	0.505800
H431	H43	0.946900	0.687700	0.507800
C871	C87	0.943600	0.571400	0.512900
O161	O16	0.535800	0.582700	0.441100
O171	O17	0.418700	0.584400	0.364900
O181	O18	0.148200	0.634500	0.470700
C881	C88	0.496700	0.754700	0.038300
H441	H44	0.493900	0.709800	0.069300
C891	C89	0.494800	0.831000	0.064700
C901	C90	0.480100	0.855200	0.133400
C911	C91	0.474900	0.933700	0.156800
C921	C92	0.461400	0.962100	0.228000
H451	H45	0.453600	0.930500	0.268600
C931	C93	0.479500	0.793600	0.198200
C941	C94	0.537000	0.763000	0.271500
H461	H46	0.580600	0.783100	0.285400
C951	C95	0.537300	0.703500	0.329200
H471	H47	0.580100	0.683700	0.379100
C961	C96	0.474700	0.673500	0.313300
C971	C97	0.417700	0.701500	0.241700
H481	H48	0.374700	0.679500	0.227700
C981	C98	0.416100	0.763400	0.182900
H491	H49	0.373000	0.783800	0.134300
C991	C99	0.477200	0.607500	0.377500
C1001	C100	0.120400	0.574900	0.473500
C1011	C101	0.031900	0.640800	0.494200
H501	H50	0.053100	0.687700	0.492200
C1021	C102	0.056400	0.571400	0.487100
O191	O19	0.535800	0.417300	0.441100
O201	O20	0.418700	0.415600	0.364900
O211	O21	0.148200	0.365500	0.470700
C1031	C103	0.496700	0.245300	0.038300
H511	H51	0.493900	0.290200	0.069300
C1041	C104	0.494800	0.169000	0.064700
C1051	C105	0.480100	0.144800	0.133400
C1061	C106	0.474900	0.066300	0.156800
C1071	C107	0.461400	0.037900	0.228000
H521	H52	0.453600	0.069500	0.268600
C1081	C108	0.479500	0.206400	0.198200
C1091	C109	0.537000	0.237000	0.271500
H531	H53	0.580600	0.216900	0.285400
C1101	C110	0.537300	0.296500	0.329200
H541	H54	0.580100	0.316300	0.379100
C1111	C111	0.474700	0.326500	0.313300
C1121	C112	0.417700	0.298500	0.241700
H551	H55	0.374700	0.320500	0.227700
C1131	C113	0.416100	0.236600	0.182900
H561	H56	0.373000	0.216200	0.134300
C1141	C114	0.477200	0.392500	0.377500
C1151	C115	0.120400	0.425100	0.473500
C1161	C116	0.031900	0.359200	0.494200
H571	H57	0.053100	0.312300	0.492200
C1171	C117	0.056400	0.428600	0.487100
O221	O22	0.464200	0.417300	0.558900
O231	O23	0.581300	0.415600	0.635100
O241	O24	0.851800	0.365500	0.529300
C1181	C118	0.503300	0.245300	0.961700
H581	H58	0.506100	0.290200	0.930700
C1191	C119	0.505200	0.169000	0.935300
C1201	C120	0.519900	0.144800	0.866600
C1211	C121	0.525100	0.066300	0.843200
C1221	C122	0.538600	0.037900	0.772000
H591	H59	0.546400	0.069500	0.731400
C1231	C123	0.520500	0.206400	0.801800
C1241	C124	0.463000	0.237000	0.728500
H601	H60	0.419400	0.216900	0.714600
C1251	C125	0.462700	0.296500	0.670800
H611	H61	0.419900	0.316300	0.620900
C1261	C126	0.525300	0.326500	0.686700
C1271	C127	0.582300	0.298500	0.758300
H621	H62	0.625300	0.320500	0.772300
C1281	C128	0.583900	0.236600	0.817100
H631	H63	0.627000	0.216200	0.865700
C1291	C129	0.522800	0.392500	0.622500
C1301	C130	0.879600	0.425100	0.526500
C1311	C131	0.968100	0.359200	0.505800
H641	H64	0.946900	0.312300	0.507800
C1321	C132	0.943600	0.428600	0.512900
Zn31	Zn3	0.578200	0.500000	0.547940
N91	N9	0.672200	0.500000	0.552400
N101	N10	0.856300	0.500000	0.536200
C1331	C133	0.733200	0.500000	0.627800
H651	H65	0.735900	0.500000	0.686900
C1341	C134	0.800800	0.500000	0.629000
H661	H66	0.844500	0.500000	0.686500
C1351	C135	0.796100	0.500000	0.546800
C1361	C136	0.730200	0.500000	0.462700
H671	H67	0.727700	0.500000	0.403800
C1371	C137	0.664100	0.500000	0.463800
H681	H68	0.619600	0.500000	0.407500
C1381	C138	0.967700	0.500000	0.503800
Zn41	Zn4	0.421800	0.500000	0.452060
N111	N11	0.327800	0.500000	0.447600
N121	N12	0.143700	0.500000	0.463800
C1391	C139	0.266800	0.500000	0.372200
H691	H69	0.264100	0.500000	0.313100
C1401	C140	0.199200	0.500000	0.371000
H701	H70	0.155500	0.500000	0.313500
C1411	C141	0.203900	0.500000	0.453200
C1421	C142	0.269800	0.500000	0.537300
H711	H71	0.272300	0.500000	0.596200
C1431	C143	0.335900	0.500000	0.536200
H721	H72	0.380400	0.500000	0.592500
C1441	C144	0.032300	0.500000	0.496200
Mn21	Mn2	0.500000	0.000000	0.000000
N131	N13	0.517900	0.000000	0.891400
N141	N14	0.482100	0.000000	0.108600
N151	N15	0.500000	0.880700	0.000000
N161	N16	0.500000	0.119300	0.000000
