data_XILVIZ_clean_PM
_symmetry_space_group_name_H-M	'P1'
_cell_length_a	13.372000
_cell_length_b	14.164000
_cell_length_c	16.713000
_cell_angle_alpha	69.626000
_cell_angle_beta	68.786000
_cell_angle_gamma	73.544000
_symmetry_Int_Tables_number 1

loop_
_symmetry_equiv_pos_as_xyz
'x,y,z'

loop_
_atom_site_label
_atom_site_type_symbol
_atom_site_fract_x
_atom_site_fract_y
_atom_site_fract_z
Mn11	Mn1	0.500000	0.000000	0.500000
Zn11	Zn1	0.082230	0.567100	0.959320
Zn21	Zn2	0.917770	0.432900	0.040680
H11	H1	0.958500	0.774100	0.743000
H21	H2	0.854000	0.873400	0.632000
H31	H3	0.615500	0.721900	0.787900
H41	H4	0.715400	0.623900	0.881500
H51	H5	0.594400	0.950900	0.781200
H61	H6	0.443500	0.097100	0.781800
H71	H7	0.188000	0.293000	0.573100
H81	H8	0.180500	0.283100	0.434600
H91	H9	0.396400	0.326500	0.641300
H101	H10	0.310100	0.423800	0.752600
H111	H11	0.083700	0.234600	0.874100
H121	H12	0.184200	0.145500	0.762100
H131	H13	0.176900	0.598800	0.081400
H141	H14	0.290800	0.696700	0.075700
H151	H15	0.311200	0.830300	0.812600
H161	H16	0.213200	0.724900	0.831600
H171	H17	0.263300	0.133100	0.954100
H181	H18	0.655200	0.759800	0.027800
H191	H19	0.041500	0.225900	0.257000
H201	H20	0.146000	0.126600	0.368000
H211	H21	0.384500	0.278100	0.212100
H221	H22	0.284600	0.376100	0.118500
H231	H23	0.405600	0.049100	0.218800
H241	H24	0.556500	0.902900	0.218200
H251	H25	0.812000	0.707000	0.426900
H261	H26	0.819500	0.716900	0.565400
H271	H27	0.603600	0.673500	0.358700
H281	H28	0.689900	0.576200	0.247400
H291	H29	0.916300	0.765400	0.125900
H301	H30	0.815800	0.854500	0.237900
H311	H31	0.823100	0.401200	0.918600
H321	H32	0.709200	0.303300	0.924300
H331	H33	0.688800	0.169700	0.187400
H341	H34	0.786800	0.275100	0.168400
H351	H35	0.736700	0.866900	0.045900
H361	H36	0.344800	0.240200	0.972200
C11	C1	0.914100	0.632800	0.884000
C21	C2	0.841800	0.690500	0.820500
C31	C3	0.890100	0.762900	0.750300
C41	C4	0.826000	0.824700	0.684000
C51	C5	0.722900	0.803100	0.707000
C61	C6	0.685200	0.733200	0.776300
C71	C7	0.744400	0.675400	0.832800
C81	C8	0.656600	0.865100	0.641000
C91	C9	0.580900	0.946500	0.660100
C101	C10	0.557500	0.980200	0.738200
C111	C11	0.474400	0.060400	0.739500
C121	C12	0.444200	0.076500	0.661500
C131	C13	0.353200	0.154200	0.640000
C141	C14	0.329400	0.171700	0.562400
C151	C15	0.235300	0.248700	0.539900
C161	C16	0.230800	0.243100	0.465200
C171	C17	0.320200	0.161800	0.438500
C181	C18	0.299200	0.218800	0.698700
C191	C19	0.336400	0.307200	0.689100
C201	C20	0.282200	0.370100	0.753500
C211	C21	0.187200	0.341500	0.814400
C221	C22	0.144900	0.254800	0.828200
C231	C23	0.211000	0.200600	0.760200
C241	C24	0.119300	0.408300	0.888800
C251	C25	0.203200	0.645700	0.027400
C261	C26	0.271300	0.711600	0.024000
C271	C27	0.310900	0.791500	0.957200
C281	C28	0.285000	0.788100	0.869400
C291	C29	0.220800	0.717200	0.886800
C301	C30	0.327000	0.952300	0.952500
C311	C31	0.467000	0.802000	0.983100
C321	C32	0.329600	0.106100	0.966700
C331	C33	0.369000	0.008000	0.971200
C341	C34	0.477200	0.963900	0.992800
C351	C35	0.522000	0.861600	0.998000
C361	C36	0.621800	0.828100	0.020900
C371	C37	0.085900	0.367200	0.116000
C381	C38	0.158200	0.309500	0.179500
C391	C39	0.109900	0.237100	0.249700
C401	C40	0.174000	0.175300	0.316000
C411	C41	0.277100	0.196900	0.293000
C421	C42	0.314800	0.266800	0.223700
C431	C43	0.255600	0.324600	0.167200
C441	C44	0.343400	0.134900	0.359000
C451	C45	0.419100	0.053500	0.339900
C461	C46	0.442500	0.019800	0.261800
C471	C47	0.525600	0.939600	0.260500
C481	C48	0.555800	0.923500	0.338500
C491	C49	0.646800	0.845800	0.360000
C501	C50	0.670600	0.828300	0.437600
C511	C51	0.764700	0.751300	0.460100
C521	C52	0.769200	0.756900	0.534800
C531	C53	0.679800	0.838200	0.561500
C541	C54	0.700800	0.781200	0.301300
C551	C55	0.663600	0.692800	0.310900
C561	C56	0.717800	0.629900	0.246500
C571	C57	0.812800	0.658500	0.185600
C581	C58	0.855100	0.745200	0.171800
C591	C59	0.789000	0.799400	0.239800
C601	C60	0.880700	0.591700	0.111200
C611	C61	0.796800	0.354300	0.972600
C621	C62	0.728700	0.288400	0.976000
C631	C63	0.689100	0.208500	0.042800
C641	C64	0.715000	0.211900	0.130600
C651	C65	0.779200	0.282800	0.113200
C661	C66	0.673000	0.047700	0.047500
C671	C67	0.533000	0.198000	0.016900
C681	C68	0.670400	0.893900	0.033300
C691	C69	0.631000	0.992000	0.028800
C701	C70	0.522800	0.036100	0.007200
C711	C71	0.478000	0.138400	0.002000
C721	C72	0.378200	0.171900	0.979100
N11	N1	0.505500	0.010600	0.611900
N21	N2	0.375200	0.111900	0.504600
N31	N3	0.169600	0.650100	0.937900
N41	N4	0.364500	0.852900	0.959400
N51	N5	0.494500	0.989400	0.388100
N61	N6	0.624800	0.888100	0.495400
N71	N7	0.830400	0.349900	0.062100
N81	N8	0.635500	0.147100	0.040600
O11	O1	0.998500	0.658900	0.874900
O21	O2	0.868400	0.554500	0.941500
O31	O3	0.033100	0.375500	0.940000
O41	O4	0.161800	0.483800	0.874000
O51	O5	0.237000	0.978800	0.932700
O61	O6	0.503300	0.708200	0.988400
O71	O7	0.001500	0.341100	0.125100
O81	O8	0.131600	0.445500	0.058500
O91	O9	0.966900	0.624500	0.060000
O101	O10	0.838200	0.516200	0.126000
O111	O11	0.763000	0.021200	0.067300
O121	O12	0.496700	0.291800	0.011600
