data_XIMPOA01_clean_PM
_symmetry_space_group_name_H-M	'P1'
_cell_length_a	14.774000
_cell_length_b	15.653000
_cell_length_c	16.871000
_cell_angle_alpha	90.000000
_cell_angle_beta	90.000000
_cell_angle_gamma	90.000000
_symmetry_Int_Tables_number 1

loop_
_symmetry_equiv_pos_as_xyz
'x,y,z'

loop_
_atom_site_label
_atom_site_type_symbol
_atom_site_fract_x
_atom_site_fract_y
_atom_site_fract_z
Zn11	Zn1	0.588060	0.028390	0.237510
Zn21	Zn2	0.346260	0.975320	0.709730
Zn31	Zn3	0.088060	0.471610	0.762490
Zn41	Zn4	0.846260	0.524680	0.290270
H11	H1	0.502900	0.848600	0.664900
H21	H2	0.160100	0.528300	0.093000
H31	H3	0.543100	0.624900	0.114900
H41	H4	0.263400	0.208300	0.885000
H51	H5	0.380200	0.618800	0.016800
H61	H6	0.632600	0.746700	0.881200
H71	H7	0.467500	0.619200	0.832400
H81	H8	0.767300	0.571400	0.970800
H91	H9	0.926900	0.589900	0.812600
H101	H10	0.196300	0.209500	0.733800
H111	H11	0.927900	0.943200	0.103600
H121	H12	0.232500	0.814000	0.645300
H131	H13	0.426900	0.910100	0.187400
H141	H14	0.100600	0.848700	0.017200
H151	H15	0.603100	0.842400	0.138500
H161	H16	0.137700	0.562000	0.964200
H171	H17	0.343400	0.733000	0.096700
H181	H18	0.642700	0.824600	0.740500
H191	H19	0.043100	0.875100	0.885100
H201	H20	0.103100	0.657600	0.861500
H211	H21	0.637700	0.938000	0.035800
H221	H22	0.363600	0.888100	0.908200
H231	H23	0.392600	0.045400	0.993200
H241	H24	0.602400	0.749700	0.284300
H251	H25	0.896300	0.728700	0.171300
H261	H26	0.892600	0.454600	0.006800
H271	H27	0.283000	0.875100	0.106400
H281	H28	0.710400	0.899000	0.335100
H291	H29	0.360600	0.657600	0.710300
H301	H30	0.267300	0.928600	0.029200
H311	H31	0.763400	0.291700	0.115000
H321	H32	0.142700	0.675400	0.259500
H331	H33	0.511200	0.704500	0.163300
H341	H34	0.699500	0.560700	0.158000
H351	H35	0.199500	0.939300	0.842000
H361	H36	0.880200	0.881200	0.983200
H371	H37	0.660100	0.971700	0.907000
H381	H38	0.011200	0.795500	0.836700
H391	H39	0.991100	0.503800	0.148600
H401	H40	0.600600	0.651300	0.982800
H411	H41	0.939000	0.662000	0.572200
H421	H42	0.863600	0.611900	0.091800
H431	H43	0.696300	0.290500	0.266200
H441	H44	0.763800	0.998700	0.126500
H451	H45	0.216300	0.597600	0.138500
H461	H46	0.959500	0.494600	0.531000
H471	H47	0.263800	0.501300	0.873500
H481	H48	0.783000	0.624900	0.893600
H491	H49	0.515900	0.109800	0.068900
H501	H50	0.967500	0.880800	0.167600
H511	H51	0.860600	0.842400	0.289700
H521	H52	0.102400	0.750300	0.715700
H531	H53	0.396300	0.771300	0.828700
H541	H54	0.210400	0.601000	0.664900
H551	H55	0.015900	0.390200	0.931100
H561	H56	0.132600	0.753300	0.118800
H571	H57	0.843400	0.767000	0.903300
H581	H58	0.439000	0.838000	0.427800
H591	H59	0.732500	0.686000	0.354700
H601	H60	0.459500	0.005400	0.469000
H611	H61	0.491100	0.996200	0.851400
H621	H62	0.002900	0.651400	0.335100
H631	H63	0.427900	0.556800	0.896400
H641	H64	0.716300	0.902400	0.861500
C11	C1	0.255500	0.187800	0.833700
C21	C2	0.852700	0.758700	0.957200
C31	C3	0.138200	0.795500	0.732900
C41	C4	0.128700	0.619600	0.975100
C51	C5	0.843800	0.677700	0.990300
C61	C6	0.093600	0.762800	0.930000
C71	C7	0.323100	0.620000	0.737500
C81	C8	0.414900	0.026000	0.041500
C91	C9	0.157300	0.584900	0.116300
C101	C10	0.692500	0.600300	0.198600
C111	C11	0.823100	0.880000	0.262500
C121	C12	0.390000	0.929700	0.552800
C131	C13	0.456900	0.894500	0.421200
C141	C14	0.635800	0.850300	0.948200
C151	C15	0.205500	0.232400	0.784000
C161	C16	0.162400	0.316600	0.801300
C171	C17	0.239500	0.587900	0.712300
C181	C18	0.439800	0.949600	0.476600
C191	C19	0.095800	0.638400	0.246500
C201	C20	0.605800	0.709200	0.994000
C211	C21	0.391700	0.681000	0.915900
C221	C22	0.705500	0.267600	0.216000
C231	C23	0.800000	0.394500	0.188600
C241	C24	0.934200	0.548400	0.851500
C251	C25	0.914900	0.474000	0.958500
C261	C26	0.939800	0.550400	0.523400
C271	C27	0.875700	0.827200	0.005800
C281	C28	0.956900	0.605500	0.578800
C291	C29	0.607600	0.822800	0.086600
C301	C30	0.483000	0.061600	0.083200
C311	C31	0.593600	0.737200	0.070000
C321	C32	0.210100	0.831900	0.694100
C331	C33	0.343800	0.822300	0.009700
C341	C34	0.812300	0.603100	0.940900
C351	C35	0.504600	0.920000	0.347100
C361	C36	0.885800	0.736400	0.117400
C371	C37	0.983000	0.438400	0.916800
C381	C38	0.107600	0.677200	0.913400
C391	C39	0.628700	0.880400	0.024900
C401	C40	0.434200	0.951600	0.148500
C411	C41	0.511700	0.956600	0.814500
C421	C42	0.011700	0.543400	0.185500
C431	C43	0.375700	0.672800	0.994200
C441	C44	0.268400	0.533200	0.827200
C451	C45	0.300000	0.105500	0.811400
C461	C46	0.638200	0.704500	0.267100
C471	C47	0.518600	0.875300	0.712200
C481	C48	0.891700	0.819000	0.084100
C491	C49	0.004600	0.580000	0.652900
C501	C50	0.657300	0.915100	0.883700
C511	C51	0.414100	0.606000	0.863600
C521	C52	0.135800	0.649700	0.051800
C531	C53	0.595800	0.861600	0.753500
C541	C54	0.890000	0.570300	0.447200
C551	C55	0.364300	0.833500	0.930000
C561	C56	0.864300	0.666500	0.070000
C571	C57	0.739500	0.912100	0.287700
C581	C58	0.768400	0.966800	0.172800
C591	C59	0.312300	0.896900	0.059100
C601	C60	0.385800	0.763600	0.882600
C611	C61	0.755500	0.312200	0.166300
C621	C62	0.126000	0.733300	0.067200
C631	C63	0.352700	0.741300	0.042800
C641	C64	0.914100	0.894000	0.136400
C651	C65	0.626000	0.766700	0.932800
C661	C66	0.563100	0.678600	0.137600
C671	C67	0.105800	0.790800	0.006000
C681	C68	0.018600	0.624700	0.287800
C691	C69	0.662400	0.183400	0.198700
C701	C70	0.710100	0.668100	0.305900
C711	C71	0.192500	0.899700	0.801400
C721	C72	0.063100	0.821400	0.862400
N11	N1	0.130700	0.839900	0.802100
N21	N2	0.467400	0.934700	0.751100
N31	N3	0.338300	0.585000	0.810000
N41	N4	0.707800	0.967000	0.229100
N51	N5	0.244000	0.898500	0.737600
N61	N6	0.495100	0.012800	0.151800
N71	N7	0.967400	0.565300	0.248900
N81	N8	0.630700	0.660100	0.197900
N91	N9	0.384200	0.955800	0.082900
N101	N10	0.884200	0.544200	0.917100
N111	N11	0.207800	0.533000	0.770900
N121	N12	0.090300	0.584900	0.179700
N131	N13	0.590300	0.915100	0.820300
N141	N14	0.995100	0.487200	0.848200
N151	N15	0.838300	0.915000	0.190000
N161	N16	0.744000	0.601500	0.262400
O11	O1	0.867600	0.646600	0.431000
O21	O2	0.305900	0.090100	0.737400
O31	O3	0.035400	0.504400	0.658500
O41	O4	0.669500	0.148400	0.131700
O51	O5	0.823900	0.445700	0.136500
O61	O6	0.323900	0.054300	0.863500
O71	O7	0.367600	0.853400	0.569000
O81	O8	0.169500	0.351600	0.868300
O91	O9	0.124300	0.351900	0.742900
O101	O10	0.010800	0.636200	0.705700
O111	O11	0.624300	0.148100	0.257100
O121	O12	0.805900	0.409900	0.262600
O131	O13	0.876700	0.507300	0.402500
O141	O14	0.535400	0.995600	0.341500
O151	O15	0.510800	0.863800	0.294300
O161	O16	0.376700	0.992700	0.597500
Zn51	Zn5	0.153740	0.024680	0.209730
Zn61	Zn6	0.911940	0.971610	0.737510
Zn71	Zn7	0.653740	0.475320	0.790270
Zn81	Zn8	0.411940	0.528390	0.262490
H651	H65	0.232700	0.071400	0.529200
H661	H66	0.736200	0.001300	0.626500
H671	H67	0.803700	0.709500	0.766200
H681	H68	0.857300	0.175400	0.240500
H691	H69	0.732700	0.428600	0.470800
H701	H70	0.639400	0.157600	0.789700
H711	H71	0.997100	0.151400	0.164900
H721	H72	0.717000	0.375100	0.393600
H731	H73	0.497100	0.348600	0.835100
H741	H74	0.136400	0.111900	0.408200
H751	H75	0.236200	0.498700	0.373500
H761	H76	0.399400	0.151300	0.517200
H771	H77	0.396900	0.342400	0.361500
H781	H78	0.032500	0.380800	0.332400
H791	H79	0.603700	0.271300	0.671300
H801	H80	0.303700	0.790500	0.233800
H811	H81	0.289600	0.399000	0.164900
H821	H82	0.072100	0.443200	0.396400
H831	H83	0.767500	0.314000	0.854700
H841	H84	0.073100	0.089900	0.687400
H851	H85	0.156600	0.267000	0.596700
H861	H86	0.488800	0.204500	0.336700
H871	H87	0.061000	0.162000	0.927800
H881	H88	0.508900	0.496200	0.648600
H891	H89	0.800500	0.439300	0.658000
H901	H90	0.217000	0.124900	0.606400
H911	H91	0.300500	0.060700	0.342000
H921	H92	0.783700	0.097600	0.361500
H931	H93	0.956900	0.375100	0.614900
H941	H94	0.267500	0.186000	0.145300
H951	H95	0.789600	0.101000	0.835100
H961	H96	0.561000	0.338000	0.072200
H971	H97	0.736600	0.708300	0.615000
H981	H98	0.899400	0.348700	0.482800
H991	H99	0.984100	0.890200	0.568900
H1001	H100	0.456900	0.124900	0.385100
H1011	H101	0.573100	0.410100	0.312600
H1021	H102	0.139400	0.342400	0.210300
H1031	H103	0.862300	0.062000	0.535800
H1041	H104	0.656600	0.233000	0.403300
H1051	H105	0.008900	0.003800	0.351400
H1061	H106	0.532500	0.119200	0.667600
H1071	H107	0.397600	0.249700	0.215700
H1081	H108	0.988800	0.295500	0.663300
H1091	H109	0.040500	0.994600	0.969000
H1101	H110	0.897600	0.250300	0.784300
H1111	H111	0.867400	0.253300	0.381200
H1121	H112	0.484100	0.609800	0.431100
H1131	H113	0.283700	0.402400	0.638500
H1141	H114	0.896900	0.157600	0.638500
H1151	H115	0.339900	0.471700	0.593000
H1161	H116	0.103700	0.228700	0.328700
H1171	H117	0.572100	0.056800	0.603600
H1181	H118	0.107400	0.954600	0.493200
H1191	H119	0.839900	0.028300	0.407000
H1201	H120	0.367400	0.246700	0.618800
H1211	H121	0.236600	0.791700	0.385000
H1221	H122	0.362300	0.438000	0.464200
H1231	H123	0.540500	0.505400	0.031000
H1241	H124	0.357300	0.324600	0.759500
H1251	H125	0.607400	0.545400	0.506800
H1261	H126	0.636400	0.388100	0.591800
H1271	H127	0.119800	0.381200	0.516800
H1281	H128	0.619800	0.118800	0.483200
C731	C73	0.676900	0.120000	0.762500
C741	C74	0.307500	0.100300	0.301400
C751	C75	0.517000	0.561600	0.416800
C761	C76	0.017000	0.938400	0.583200
C771	C77	0.988300	0.043400	0.314500
C781	C78	0.156200	0.177700	0.509700
C791	C79	0.361800	0.204500	0.232900
C801	C80	0.404200	0.361600	0.746500
C811	C81	0.760500	0.087900	0.787700
C821	C82	0.981400	0.124700	0.212200
C831	C83	0.864200	0.149700	0.448200
C841	C84	0.231600	0.466800	0.327200
C851	C85	0.904200	0.138400	0.253500
C861	C86	0.560200	0.449600	0.023400
C871	C87	0.731600	0.033200	0.672800
C881	C88	0.700000	0.605500	0.688600
C891	C89	0.614200	0.263600	0.617400
C901	C90	0.065800	0.048400	0.648500
C911	C91	0.187700	0.103100	0.559100
C921	C92	0.436900	0.178600	0.362400
C931	C93	0.837600	0.816600	0.698700
C941	C94	0.744500	0.687800	0.666300
C951	C95	0.687700	0.396900	0.440900
C961	C96	0.371300	0.380400	0.475100
C971	C97	0.871300	0.119600	0.524900
C981	C98	0.495400	0.420000	0.152900
C991	C99	0.610000	0.429700	0.947200
C1001	C100	0.585100	0.526000	0.458500
C1011	C101	0.200000	0.894500	0.311400
C1021	C102	0.543100	0.394500	0.078800
C1031	C103	0.176900	0.380000	0.237500
C1041	C104	0.807500	0.399700	0.698600
C1051	C105	0.406400	0.237200	0.430000
C1061	C106	0.794500	0.732400	0.716000
C1071	C107	0.110000	0.070300	0.052800
C1081	C108	0.114200	0.236400	0.382600
C1091	C109	0.108300	0.319000	0.415900
C1101	C110	0.392400	0.322800	0.413400
C1111	C111	0.861800	0.295500	0.767100
C1121	C112	0.337600	0.683400	0.301300
C1131	C113	0.060200	0.050400	0.976600
C1141	C114	0.635700	0.333500	0.570000
C1151	C115	0.995400	0.080000	0.847100
C1161	C116	0.789900	0.331900	0.805900
C1171	C117	0.364200	0.350300	0.551800
C1181	C118	0.488300	0.456600	0.685500
C1191	C119	0.085900	0.394000	0.363600
C1201	C120	0.894200	0.290800	0.494000
C1211	C121	0.608300	0.181000	0.584100
C1221	C122	0.892400	0.177200	0.586600
C1231	C123	0.647300	0.241300	0.457200
C1241	C124	0.585900	0.106000	0.636400
C1251	C125	0.906400	0.262800	0.570000
C1261	C126	0.043100	0.105500	0.921200
C1271	C127	0.936900	0.321400	0.637600
C1281	C128	0.342700	0.415100	0.616300
C1291	C129	0.624300	0.172800	0.505800
C1301	C130	0.135700	0.166500	0.430000
C1311	C131	0.656200	0.322300	0.490300
C1321	C132	0.260500	0.412100	0.212300
C1331	C133	0.294500	0.767600	0.284000
C1341	C134	0.289900	0.168100	0.194100
C1351	C135	0.874000	0.233300	0.432800
C1361	C136	0.394200	0.209200	0.506000
C1371	C137	0.124300	0.327200	0.494200
C1381	C138	0.244500	0.812200	0.333700
C1391	C139	0.565800	0.451600	0.351500
C1401	C140	0.842700	0.084900	0.383700
C1411	C141	0.374000	0.266700	0.567200
C1421	C142	0.147300	0.258700	0.542800
C1431	C143	0.085100	0.974000	0.541500
C1441	C144	0.481400	0.375300	0.787800
N171	N17	0.532600	0.434700	0.748900
N181	N18	0.369300	0.160100	0.302100
N191	N19	0.756000	0.398500	0.762400
N201	N20	0.256000	0.101500	0.237600
N211	N21	0.615800	0.455800	0.417100
N221	N22	0.115800	0.044200	0.582900
N231	N23	0.869300	0.339900	0.697900
N241	N24	0.661700	0.085000	0.690000
N251	N25	0.161700	0.415000	0.310000
N261	N26	0.504900	0.512800	0.348200
N271	N27	0.292200	0.467000	0.270900
N281	N28	0.032600	0.065300	0.251100
N291	N29	0.792200	0.033000	0.729100
N301	N30	0.409700	0.415100	0.679700
N311	N31	0.004900	0.987200	0.651800
N321	N32	0.909700	0.084900	0.320300
O171	O17	0.875700	0.851900	0.757100
O181	O18	0.623300	0.492700	0.902500
O191	O19	0.489200	0.363800	0.205700
O201	O20	0.989200	0.136200	0.794300
O211	O21	0.123300	0.007300	0.097500
O221	O22	0.330500	0.648400	0.368300
O231	O23	0.375700	0.648100	0.242900
O241	O24	0.464600	0.495600	0.158500
O251	O25	0.694100	0.590100	0.762600
O261	O26	0.132400	0.146600	0.069000
O271	O27	0.194100	0.909900	0.237400
O281	O28	0.830500	0.851600	0.631700
O291	O29	0.632400	0.353400	0.931000
O301	O30	0.964600	0.004400	0.841500
O311	O31	0.176100	0.945700	0.363500
O321	O32	0.676100	0.554300	0.636500
