data_XINHOT_clean_PM
_symmetry_space_group_name_H-M	'P1'
_cell_length_a	12.389600
_cell_length_b	12.440100
_cell_length_c	16.578700
_cell_angle_alpha	83.980400
_cell_angle_beta	77.842900
_cell_angle_gamma	60.134300
_symmetry_Int_Tables_number 1

loop_
_symmetry_equiv_pos_as_xyz
'x,y,z'

loop_
_atom_site_label
_atom_site_type_symbol
_atom_site_fract_x
_atom_site_fract_y
_atom_site_fract_z
La11	La1	0.485280	0.093460	0.599920
La21	La2	0.421260	0.093460	0.900080
La31	La3	0.514720	0.906540	0.400080
La41	La4	0.578740	0.906540	0.099920
H11	H1	0.785800	0.664200	0.454500
H21	H2	0.070900	0.243800	0.645300
H31	H3	0.894300	0.252200	0.588300
H41	H4	0.882900	0.074800	0.112700
H51	H5	0.747800	0.078000	0.250900
H61	H6	0.918100	0.737000	0.629500
H71	H7	0.913400	0.459200	0.382900
H81	H8	0.049200	0.233800	0.889800
H91	H9	0.862600	0.074200	0.457700
H101	H10	0.808900	0.585400	0.770400
H111	H11	0.691000	0.597400	0.836400
H121	H12	0.703500	0.788600	0.826200
H131	H13	0.550000	0.664200	0.045500
H141	H14	0.685300	0.243800	0.854700
H151	H15	0.853500	0.252200	0.911700
H161	H16	0.042300	0.074800	0.387300
H171	H17	0.174200	0.078000	0.249100
H181	H18	0.344900	0.737000	0.870500
H191	H19	0.627400	0.459200	0.117100
H201	H20	0.717000	0.233800	0.610200
H211	H21	0.063200	0.074200	0.042300
H221	H22	0.605700	0.585400	0.729600
H231	H23	0.711600	0.597400	0.663600
H241	H24	0.507900	0.788600	0.673800
H251	H25	0.214200	0.335800	0.545500
H261	H26	0.929100	0.756200	0.354700
H271	H27	0.105700	0.747800	0.411700
H281	H28	0.117100	0.925200	0.887300
H291	H29	0.252200	0.922000	0.749100
H301	H30	0.081900	0.263000	0.370500
H311	H31	0.086600	0.540800	0.617100
H321	H32	0.950800	0.766200	0.110200
H331	H33	0.137400	0.925800	0.542300
H341	H34	0.191100	0.414600	0.229600
H351	H35	0.309000	0.402600	0.163600
H361	H36	0.296500	0.211400	0.173800
H371	H37	0.450000	0.335800	0.954500
H381	H38	0.314700	0.756200	0.145300
H391	H39	0.146500	0.747800	0.088300
H401	H40	0.957700	0.925200	0.612700
H411	H41	0.825800	0.922000	0.750900
H421	H42	0.655100	0.263000	0.129500
H431	H43	0.372600	0.540800	0.882900
H441	H44	0.283000	0.766200	0.389800
H451	H45	0.936800	0.925800	0.957700
H461	H46	0.394300	0.414600	0.270400
H471	H47	0.288400	0.402600	0.336400
H481	H48	0.492100	0.211400	0.326200
C11	C1	0.718600	0.843400	0.555600
C21	C2	0.833300	0.718400	0.542300
C31	C3	0.953200	0.518400	0.475600
C41	C4	0.080200	0.234400	0.765100
C51	C5	0.214400	0.211800	0.751400
C61	C6	0.847500	0.639000	0.486700
C71	C7	0.027800	0.242600	0.698300
C81	C8	0.855200	0.247200	0.641900
C91	C9	0.939900	0.075400	0.141000
C101	C10	0.672200	0.075600	0.410300
C111	C11	0.787900	0.076200	0.360200
C121	C12	0.807500	0.077200	0.277200
C131	C13	0.917500	0.076800	0.228400
C141	C14	0.907500	0.249200	0.709700
C151	C15	0.926100	0.682200	0.591700
C161	C16	0.972300	0.434400	0.417100
C171	C17	0.013300	0.238000	0.844900
C181	C18	0.877200	0.075200	0.400300
C191	C19	0.717400	0.632000	0.786000
C201	C20	0.438000	0.843400	0.944400
C211	C21	0.448300	0.718400	0.957700
C221	C22	0.528400	0.518400	0.024400
C231	C23	0.685400	0.234400	0.734900
C241	C24	0.573800	0.211800	0.748600
C251	C25	0.513500	0.639000	0.013300
C261	C26	0.729600	0.242600	0.801700
C271	C27	0.897600	0.247200	0.858100
C281	C28	0.984700	0.075400	0.359000
C291	C29	0.252200	0.075600	0.089700
C301	C30	0.135900	0.076200	0.139800
C311	C31	0.115300	0.077200	0.222800
C321	C32	0.005700	0.076800	0.271600
C331	C33	0.843300	0.249200	0.790300
C341	C34	0.391700	0.682200	0.908300
C351	C35	0.593300	0.434400	0.082900
C361	C36	0.748700	0.238000	0.655100
C371	C37	0.047600	0.075200	0.099700
C381	C38	0.650600	0.632000	0.714000
C391	C39	0.281400	0.156600	0.444400
C401	C40	0.166700	0.281600	0.457700
C411	C41	0.046800	0.481600	0.524400
C421	C42	0.919800	0.765600	0.234900
C431	C43	0.785600	0.788200	0.248600
C441	C44	0.152500	0.361000	0.513300
C451	C45	0.972200	0.757400	0.301700
C461	C46	0.144800	0.752800	0.358100
C471	C47	0.060100	0.924600	0.859000
C481	C48	0.327800	0.924400	0.589700
C491	C49	0.212100	0.923800	0.639800
C501	C50	0.192500	0.922800	0.722800
C511	C51	0.082500	0.923200	0.771600
C521	C52	0.092500	0.750800	0.290300
C531	C53	0.073900	0.317800	0.408300
C541	C54	0.027700	0.565600	0.582900
C551	C55	0.986700	0.762000	0.155100
C561	C56	0.122800	0.924800	0.599700
C571	C57	0.282600	0.368000	0.214000
C581	C58	0.562000	0.156600	0.055600
C591	C59	0.551700	0.281600	0.042300
C601	C60	0.471600	0.481600	0.975600
C611	C61	0.314600	0.765600	0.265100
C621	C62	0.426200	0.788200	0.251400
C631	C63	0.486500	0.361000	0.986700
C641	C64	0.270400	0.757400	0.198300
C651	C65	0.102400	0.752800	0.141900
C661	C66	0.015300	0.924600	0.641000
C671	C67	0.747800	0.924400	0.910300
C681	C68	0.864100	0.923800	0.860200
C691	C69	0.884700	0.922800	0.777200
C701	C70	0.994300	0.923200	0.728400
C711	C71	0.156700	0.750800	0.209700
C721	C72	0.608300	0.317800	0.091700
C731	C73	0.406700	0.565600	0.917100
C741	C74	0.251300	0.762000	0.344900
C751	C75	0.952400	0.924800	0.900300
C761	C76	0.349400	0.368000	0.286000
C771	C77	0.579500	0.841000	0.750000
C781	C78	0.420500	0.159000	0.250000
N11	N1	0.674100	0.761800	0.795400
N21	N2	0.564100	0.761800	0.704600
N31	N3	0.325900	0.238200	0.204600
N41	N4	0.435900	0.238200	0.295400
O11	O1	0.634040	0.876120	0.513000
O21	O2	0.707200	0.913200	0.609900
O31	O3	0.268500	0.218800	0.681300
O41	O4	0.261500	0.190200	0.814500
O51	O5	0.641400	0.107600	0.483600
O61	O6	0.611400	0.045200	0.374100
O71	O7	0.489840	0.876120	0.987000
O81	O8	0.379600	0.913200	0.890100
O91	O9	0.512700	0.218800	0.818700
O101	O10	0.548300	0.190200	0.685500
O111	O11	0.251000	0.107600	0.016400
O121	O12	0.343400	0.045200	0.125900
O131	O13	0.365960	0.123880	0.487000
O141	O14	0.292800	0.086800	0.390100
O151	O15	0.731500	0.781200	0.318700
O161	O16	0.738500	0.809800	0.185500
O171	O17	0.358600	0.892400	0.516400
O181	O18	0.388600	0.954800	0.625900
O191	O19	0.510160	0.123880	0.013000
O201	O20	0.620400	0.086800	0.109900
O211	O21	0.487300	0.781200	0.181300
O221	O22	0.451700	0.809800	0.314500
O231	O23	0.749000	0.892400	0.983600
O241	O24	0.656600	0.954800	0.874100
O251	O25	0.514000	0.972000	0.750000
O261	O26	0.486000	0.028000	0.250000
