data_XINJAH_clean_PM
_symmetry_space_group_name_H-M	'P1'
_cell_length_a	8.785000
_cell_length_b	12.332000
_cell_length_c	19.090000
_cell_angle_alpha	106.520000
_cell_angle_beta	90.000000
_cell_angle_gamma	90.000000
_symmetry_Int_Tables_number 1

loop_
_symmetry_equiv_pos_as_xyz
'x,y,z'

loop_
_atom_site_label
_atom_site_type_symbol
_atom_site_fract_x
_atom_site_fract_y
_atom_site_fract_z
La11	La1	0.539560	0.770490	0.787540
La21	La2	0.039560	0.729510	0.712460
La31	La3	0.460440	0.229510	0.212460
La41	La4	0.960440	0.270490	0.287540
H11	H1	0.111100	0.637100	0.929500
H21	H2	0.886500	0.024300	0.612800
H31	H3	0.881100	0.382800	0.582000
H41	H4	0.911900	0.192300	0.563800
H51	H5	0.280100	0.579300	0.018000
H61	H6	0.591000	0.397700	0.746600
H71	H7	0.678800	0.529000	0.904000
H81	H8	0.616000	0.044400	0.785300
H91	H9	0.551900	0.225900	0.789500
H101	H10	0.611100	0.862900	0.570500
H111	H11	0.386500	0.475700	0.887200
H121	H12	0.381100	0.117200	0.918000
H131	H13	0.411900	0.307700	0.936200
H141	H14	0.780100	0.920700	0.482000
H151	H15	0.091000	0.102300	0.753400
H161	H16	0.178800	0.971000	0.596000
H171	H17	0.116000	0.455600	0.714700
H181	H18	0.051900	0.274100	0.710500
H191	H19	0.888900	0.362900	0.070500
H201	H20	0.113500	0.975700	0.387200
H211	H21	0.118900	0.617200	0.418000
H221	H22	0.088100	0.807700	0.436200
H231	H23	0.719900	0.420700	0.982000
H241	H24	0.409000	0.602300	0.253400
H251	H25	0.321200	0.471000	0.096000
H261	H26	0.384000	0.955600	0.214700
H271	H27	0.448100	0.774100	0.210500
H281	H28	0.388900	0.137100	0.429500
H291	H29	0.613500	0.524300	0.112800
H301	H30	0.618900	0.882800	0.082000
H311	H31	0.588100	0.692300	0.063800
H321	H32	0.219900	0.079300	0.518000
H331	H33	0.909000	0.897700	0.246600
H341	H34	0.821200	0.029000	0.404000
H351	H35	0.884000	0.544400	0.285300
H361	H36	0.948100	0.725900	0.289500
C11	C1	0.032300	0.595100	0.941430
C21	C2	0.786100	0.179110	0.651130
C31	C3	0.059700	0.533400	0.992360
C41	C4	0.809300	0.899280	0.696660
C51	C5	0.893700	0.594590	0.909540
C61	C6	0.867900	0.661970	0.856310
C71	C7	0.717800	0.536010	0.682580
C81	C8	0.734200	0.409870	0.668090
C91	C9	0.821200	0.065960	0.648840
C101	C10	0.831400	0.347080	0.612310
C111	C11	0.852900	0.233800	0.602660
C121	C12	0.760800	0.016710	0.698680
C131	C13	0.687100	0.241130	0.706150
C141	C14	0.201700	0.534600	0.027250
C151	C15	0.660200	0.357100	0.712110
C161	C16	0.773800	0.529000	0.925490
C171	C17	0.658500	0.077900	0.751980
C181	C18	0.621600	0.186800	0.754800
C191	C19	0.532300	0.904900	0.558570
C201	C20	0.286100	0.320890	0.848870
C211	C21	0.559700	0.966600	0.507640
C221	C22	0.309300	0.600720	0.803340
C231	C23	0.393700	0.905410	0.590460
C241	C24	0.367900	0.838030	0.643690
C251	C25	0.217800	0.963990	0.817420
C261	C26	0.234200	0.090130	0.831910
C271	C27	0.321200	0.434040	0.851160
C281	C28	0.331400	0.152920	0.887690
C291	C29	0.352900	0.266200	0.897340
C301	C30	0.260800	0.483290	0.801320
C311	C31	0.187100	0.258870	0.793850
C321	C32	0.701700	0.965400	0.472750
C331	C33	0.160200	0.142900	0.787890
C341	C34	0.273800	0.971000	0.574510
C351	C35	0.158500	0.422100	0.748020
C361	C36	0.121600	0.313200	0.745200
C371	C37	0.967700	0.404900	0.058570
C381	C38	0.213900	0.820890	0.348870
C391	C39	0.940300	0.466600	0.007640
C401	C40	0.190700	0.100720	0.303340
C411	C41	0.106300	0.405410	0.090460
C421	C42	0.132100	0.338030	0.143690
C431	C43	0.282200	0.463990	0.317420
C441	C44	0.265800	0.590130	0.331910
C451	C45	0.178800	0.934040	0.351160
C461	C46	0.168600	0.652920	0.387690
C471	C47	0.147100	0.766200	0.397340
C481	C48	0.239200	0.983290	0.301320
C491	C49	0.312900	0.758870	0.293850
C501	C50	0.798300	0.465400	0.972750
C511	C51	0.339800	0.642900	0.287890
C521	C52	0.226200	0.471000	0.074510
C531	C53	0.341500	0.922100	0.248020
C541	C54	0.378400	0.813200	0.245200
C551	C55	0.467700	0.095100	0.441430
C561	C56	0.713900	0.679110	0.151130
C571	C57	0.440300	0.033400	0.492360
C581	C58	0.690700	0.399280	0.196660
C591	C59	0.606300	0.094590	0.409540
C601	C60	0.632100	0.161970	0.356310
C611	C61	0.782200	0.036010	0.182580
C621	C62	0.765800	0.909870	0.168090
C631	C63	0.678800	0.565960	0.148840
C641	C64	0.668600	0.847080	0.112310
C651	C65	0.647100	0.733800	0.102660
C661	C66	0.739200	0.516710	0.198680
C671	C67	0.812900	0.741130	0.206150
C681	C68	0.298300	0.034600	0.527250
C691	C69	0.839800	0.857100	0.212110
C701	C70	0.726200	0.029000	0.425490
C711	C71	0.841500	0.577900	0.251980
C721	C72	0.878400	0.686800	0.254800
O11	O1	0.773610	0.859990	0.749970
O21	O2	0.891800	0.845150	0.645280
O31	O3	0.982600	0.695860	0.829670
O41	O4	0.590200	0.579150	0.701800
O51	O5	0.834800	0.589960	0.675500
O61	O6	0.734600	0.679990	0.841480
O71	O7	0.273610	0.640010	0.750030
O81	O8	0.391800	0.654850	0.854720
O91	O9	0.482600	0.804140	0.670330
O101	O10	0.090200	0.920850	0.798200
O111	O11	0.334800	0.910040	0.824500
O121	O12	0.234600	0.820010	0.658520
O131	O13	0.226390	0.140010	0.250030
O141	O14	0.108200	0.154850	0.354720
O151	O15	0.017400	0.304140	0.170330
O161	O16	0.409800	0.420850	0.298200
O171	O17	0.165200	0.410040	0.324500
O181	O18	0.265400	0.320010	0.158520
O191	O19	0.726390	0.359990	0.249970
O201	O20	0.608200	0.345150	0.145280
O211	O21	0.517400	0.195860	0.329670
O221	O22	0.909800	0.079150	0.201800
O231	O23	0.665200	0.089960	0.175500
O241	O24	0.765400	0.179990	0.341480
