data_XINRAP_clean_PM
_symmetry_space_group_name_H-M	'P1'
_cell_length_a	14.792800
_cell_length_b	14.792800
_cell_length_c	14.792800
_cell_angle_alpha	104.264000
_cell_angle_beta	112.136000
_cell_angle_gamma	112.136000
_symmetry_Int_Tables_number 1

loop_
_symmetry_equiv_pos_as_xyz
'x,y,z'

loop_
_atom_site_label
_atom_site_type_symbol
_atom_site_fract_x
_atom_site_fract_y
_atom_site_fract_z
Co11	Co1	0.566670	0.907180	0.493170
Co21	Co2	0.933330	0.426500	0.340510
Co31	Co3	0.585990	0.493170	0.426500
Co41	Co4	0.914010	0.340510	0.907180
Co51	Co5	0.433330	0.092820	0.506830
Co61	Co6	0.066670	0.573500	0.659490
Co71	Co7	0.414010	0.506830	0.573500
Co81	Co8	0.085990	0.659490	0.092820
H11	H1	0.361600	0.733400	0.538200
H21	H2	0.459600	0.758400	0.650600
H31	H3	0.571000	0.681100	0.300500
H41	H4	0.688300	0.763700	0.411800
H51	H5	0.572000	0.894000	0.638000
H61	H6	0.138400	0.676600	0.371800
H71	H7	0.040400	0.691000	0.298800
H81	H8	0.929000	0.229500	0.110100
H91	H9	0.811700	0.223500	0.075400
H101	H10	0.928000	0.566000	0.322000
H111	H11	0.804800	0.538200	0.676600
H121	H12	0.892200	0.650600	0.691000
H131	H13	0.619400	0.300500	0.229500
H141	H14	0.648100	0.411800	0.223500
H151	H15	0.744000	0.638000	0.566000
H161	H16	0.695200	0.371800	0.733400
H171	H17	0.607800	0.298800	0.758400
H181	H18	0.880600	0.110100	0.681100
H191	H19	0.851900	0.075400	0.763700
H201	H20	0.756000	0.322000	0.894000
H211	H21	0.638400	0.266600	0.461800
H221	H22	0.540400	0.241600	0.349400
H231	H23	0.429000	0.318900	0.699500
H241	H24	0.311700	0.236300	0.588200
H251	H25	0.428000	0.106000	0.362000
H261	H26	0.861600	0.323400	0.628200
H271	H27	0.959600	0.309000	0.701200
H281	H28	0.071000	0.770500	0.889900
H291	H29	0.188300	0.776500	0.924600
H301	H30	0.072000	0.434000	0.678000
H311	H31	0.195200	0.461800	0.323400
H321	H32	0.107800	0.349400	0.309000
H331	H33	0.380600	0.699500	0.770500
H341	H34	0.351900	0.588200	0.776500
H351	H35	0.256000	0.362000	0.434000
H361	H36	0.304800	0.628200	0.266600
H371	H37	0.392200	0.701200	0.241600
H381	H38	0.119400	0.889900	0.318900
H391	H39	0.148100	0.924600	0.236300
H401	H40	0.244000	0.678000	0.106000
C11	C1	0.483000	0.707400	0.524200
C21	C2	0.558900	0.680300	0.433200
C31	C3	0.443500	0.765200	0.583500
C41	C4	0.620100	0.691200	0.372500
C51	C5	0.017000	0.541200	0.224400
C61	C6	0.941100	0.374300	0.121400
C71	C7	0.056500	0.640000	0.321700
C81	C8	0.879900	0.252400	0.071100
C91	C9	0.816800	0.524200	0.541200
C101	C10	0.752900	0.433200	0.374300
C111	C11	0.818300	0.583500	0.640000
C121	C12	0.681300	0.372500	0.252400
C131	C13	0.683200	0.224400	0.707400
C141	C14	0.747100	0.121400	0.680300
C151	C15	0.681700	0.321700	0.765200
C161	C16	0.818700	0.071100	0.691200
C171	C17	0.517000	0.292600	0.475800
C181	C18	0.441100	0.319700	0.566800
C191	C19	0.556500	0.234800	0.416500
C201	C20	0.379900	0.308800	0.627500
C211	C21	0.983000	0.458800	0.775600
C221	C22	0.058900	0.625700	0.878600
C231	C23	0.943500	0.360000	0.678300
C241	C24	0.120100	0.747600	0.928900
C251	C25	0.183200	0.475800	0.458800
C261	C26	0.247100	0.566800	0.625700
C271	C27	0.181700	0.416500	0.360000
C281	C28	0.318700	0.627500	0.747600
C291	C29	0.316800	0.775600	0.292600
C301	C30	0.252900	0.878600	0.319700
C311	C31	0.318300	0.678300	0.234800
C321	C32	0.181300	0.928900	0.308800
N11	N1	0.532300	0.752800	0.473700
N21	N2	0.479200	0.615300	0.517100
N31	N3	0.529300	0.597200	0.456900
N41	N4	0.967700	0.441400	0.220500
N51	N5	0.020800	0.537900	0.136100
N61	N6	0.970700	0.427600	0.067900
N71	N7	0.720900	0.473700	0.441400
N81	N8	0.901800	0.517100	0.537900
N91	N9	0.859700	0.456900	0.427600
N101	N10	0.779100	0.220500	0.752800
N111	N11	0.598200	0.136100	0.615300
N121	N12	0.640300	0.067900	0.597200
N131	N13	0.467700	0.247200	0.526300
N141	N14	0.520800	0.384700	0.482900
N151	N15	0.470700	0.402800	0.543100
N161	N16	0.032300	0.558600	0.779500
N171	N17	0.979200	0.462100	0.863900
N181	N18	0.029300	0.572400	0.932100
N191	N19	0.279100	0.526300	0.558600
N201	N20	0.098200	0.482900	0.462100
N211	N21	0.140300	0.543100	0.572400
N221	N22	0.220900	0.779500	0.247200
N231	N23	0.401800	0.863900	0.384700
N241	N24	0.359700	0.932100	0.402800
O11	O1	0.502700	0.876000	0.607500
O21	O2	0.650400	0.611300	0.362700
O31	O3	0.997300	0.604800	0.373300
O41	O4	0.849600	0.212300	0.960900
O51	O5	0.731500	0.607500	0.604800
O61	O6	0.751400	0.362700	0.212300
O71	O7	0.768500	0.373300	0.876000
O81	O8	0.748600	0.960900	0.611300
O91	O9	0.497300	0.124000	0.392500
O101	O10	0.349600	0.388700	0.637300
O111	O11	0.002700	0.395200	0.626700
O121	O12	0.150400	0.787700	0.039100
O131	O13	0.268500	0.392500	0.395200
O141	O14	0.248600	0.637300	0.787700
O151	O15	0.231500	0.626700	0.124000
O161	O16	0.251400	0.039100	0.388700
