data_XINWUO_clean_PM
_symmetry_space_group_name_H-M	'P1'
_cell_length_a	11.388700
_cell_length_b	13.749500
_cell_length_c	13.749500
_cell_angle_alpha	80.123800
_cell_angle_beta	65.534100
_cell_angle_gamma	65.534200
_symmetry_Int_Tables_number 1

loop_
_symmetry_equiv_pos_as_xyz
'x,y,z'

loop_
_atom_site_label
_atom_site_type_symbol
_atom_site_fract_x
_atom_site_fract_y
_atom_site_fract_z
Zn11	Zn1	0.337120	0.550800	0.472940
Zn21	Zn2	0.860860	0.949200	0.027060
Zn31	Zn3	0.810060	0.527060	0.050800
Zn41	Zn4	0.887920	0.972940	0.449200
Zn51	Zn5	0.662880	0.449200	0.527060
Zn61	Zn6	0.139140	0.050800	0.972940
Zn71	Zn7	0.189940	0.472940	0.949200
Zn81	Zn8	0.112080	0.027060	0.550800
H11	H1	0.910200	0.421800	0.343000
H21	H2	0.955800	0.384700	0.226700
H31	H3	0.934800	0.500800	0.246800
H41	H4	0.504000	0.573600	0.226000
H51	H5	0.175000	0.078200	0.157000
H61	H6	0.067200	0.115300	0.273300
H71	H7	0.182400	0.999200	0.253200
H81	H8	0.803600	0.926400	0.274000
H91	H9	0.253200	0.657000	0.921800
H101	H10	0.182500	0.773300	0.884700
H111	H11	0.181600	0.753200	0.000800
H121	H12	0.730000	0.774000	0.073600
H131	H13	0.332000	0.843000	0.578200
H141	H14	0.340500	0.726700	0.615300
H151	H15	0.435600	0.746800	0.499200
H161	H16	0.077600	0.726000	0.426400
H171	H17	0.089800	0.578200	0.657000
H181	H18	0.044200	0.615300	0.773300
H191	H19	0.065200	0.499200	0.753200
H201	H20	0.496000	0.426400	0.774000
H211	H21	0.825000	0.921800	0.843000
H221	H22	0.932800	0.884700	0.726700
H231	H23	0.817600	0.000800	0.746800
H241	H24	0.196400	0.073600	0.726000
H251	H25	0.746800	0.343000	0.078200
H261	H26	0.817500	0.226700	0.115300
H271	H27	0.818400	0.246800	0.999200
H281	H28	0.270000	0.226000	0.926400
H291	H29	0.668000	0.157000	0.421800
H301	H30	0.659500	0.273300	0.384700
H311	H31	0.564400	0.253200	0.500800
H321	H32	0.922400	0.274000	0.573600
C11	C1	0.901500	0.444100	0.275300
C21	C2	0.751500	0.482900	0.290300
C31	C3	0.566270	0.545350	0.260510
C41	C4	0.120900	0.055900	0.224700
C51	C5	0.024700	0.017100	0.209700
C61	C6	0.872130	0.954650	0.239490
C71	C7	0.176800	0.724700	0.944100
C81	C8	0.041800	0.709700	0.982900
C91	C9	0.826780	0.739490	0.045350
C101	C10	0.345600	0.775300	0.555900
C111	C11	0.234400	0.790300	0.517100
C121	C12	0.111620	0.760510	0.454650
C131	C13	0.098500	0.555900	0.724700
C141	C14	0.248500	0.517100	0.709700
C151	C15	0.433730	0.454650	0.739490
C161	C16	0.879100	0.944100	0.775300
C171	C17	0.975300	0.982900	0.790300
C181	C18	0.127870	0.045350	0.760510
C191	C19	0.823200	0.275300	0.055900
C201	C20	0.958200	0.290300	0.017100
C211	C21	0.173220	0.260510	0.954650
C221	C22	0.654400	0.224700	0.444100
C231	C23	0.765600	0.209700	0.482900
C241	C24	0.888380	0.239490	0.545350
N11	N1	0.529140	0.526800	0.363320
N21	N2	0.650030	0.486170	0.382970
N31	N3	0.704610	0.518890	0.210490
N41	N4	0.919260	0.973200	0.136680
N51	N5	0.019170	0.013830	0.117030
N61	N6	0.933990	0.981110	0.289510
N71	N7	0.892460	0.636680	0.026800
N81	N8	0.033000	0.617030	0.986170
N91	N9	0.915100	0.789510	0.018890
N101	N10	0.055940	0.863320	0.473200
N111	N11	0.136200	0.882970	0.513830
N121	N12	0.223500	0.710490	0.481110
N131	N13	0.470860	0.473200	0.636680
N141	N14	0.349970	0.513830	0.617030
N151	N15	0.295390	0.481110	0.789510
N161	N16	0.080740	0.026800	0.863320
N171	N17	0.980830	0.986170	0.882970
N181	N18	0.066010	0.018890	0.710490
N191	N19	0.107540	0.363320	0.973200
N201	N20	0.967000	0.382970	0.013830
N211	N21	0.084900	0.210490	0.981110
N221	N22	0.944060	0.136680	0.526800
N231	N23	0.863800	0.117030	0.486170
N241	N24	0.776500	0.289510	0.518890
