data_XINZEB_clean_PM
_symmetry_space_group_name_H-M	'P1'
_cell_length_a	7.152000
_cell_length_b	18.283000
_cell_length_c	19.947000
_cell_angle_alpha	90.000000
_cell_angle_beta	90.395000
_cell_angle_gamma	90.000000
_symmetry_Int_Tables_number 1

loop_
_symmetry_equiv_pos_as_xyz
'x,y,z'

loop_
_atom_site_label
_atom_site_type_symbol
_atom_site_fract_x
_atom_site_fract_y
_atom_site_fract_z
Cd11	Cd1	0.528220	0.264540	0.352670
Cd21	Cd2	0.040450	0.239780	0.327010
O11	O1	0.715400	0.200300	0.280700
O21	O2	0.966500	0.132600	0.268100
O31	O3	0.898300	0.876100	0.185300
O41	O4	0.626800	0.838700	0.144700
O51	O5	0.900400	0.180100	0.414000
O61	O6	0.185200	0.043900	0.189400
H11	H1	0.141100	0.071900	0.217200
O71	O7	0.647100	0.235300	0.453300
O81	O8	0.545800	0.206000	0.707300
O91	O9	0.797500	0.231700	0.765500
O101	O10	0.325800	0.155300	0.608200
H21	H2	0.371200	0.175600	0.641100
C11	C1	0.792200	0.141300	0.263500
C21	C2	0.674200	0.080200	0.236100
C31	C3	0.753400	0.012700	0.220600
H31	H3	0.880300	0.004600	0.227900
C41	C4	0.482500	0.092000	0.225800
H41	H4	0.429700	0.137300	0.235300
C51	C5	0.640400	0.957500	0.194200
C61	C6	0.450900	0.968500	0.184800
H51	H5	0.376400	0.931200	0.167600
C71	C7	0.372400	0.035500	0.201300
C81	C8	0.726400	0.886100	0.174100
C91	C9	0.803000	0.204100	0.461300
C101	C10	0.877300	0.194300	0.531300
C111	C11	0.763500	0.205800	0.586600
H61	H6	0.637500	0.216800	0.580700
C121	C12	0.839700	0.200400	0.650700
C131	C13	0.029800	0.184500	0.659700
H71	H7	0.081800	0.182400	0.702600
C141	C14	0.139700	0.171600	0.603700
C151	C15	0.064000	0.175800	0.539900
H81	H8	0.138100	0.166200	0.502800
C161	C16	0.719500	0.212800	0.711100
Cd31	Cd3	0.971780	0.764540	0.147330
Cd41	Cd4	0.459550	0.739780	0.172990
O111	O11	0.784600	0.700300	0.219300
O121	O12	0.533500	0.632600	0.231900
O131	O13	0.601700	0.376100	0.314700
O141	O14	0.873200	0.338700	0.355300
O151	O15	0.599600	0.680100	0.086000
O161	O16	0.314800	0.543900	0.310600
H91	H9	0.358900	0.571900	0.282800
O171	O17	0.852900	0.735300	0.046700
O181	O18	0.954200	0.706000	0.792700
O191	O19	0.702500	0.731700	0.734500
O201	O20	0.174200	0.655300	0.891800
H101	H10	0.128800	0.675600	0.858900
C171	C17	0.707800	0.641300	0.236500
C181	C18	0.825800	0.580200	0.263900
C191	C19	0.746600	0.512700	0.279400
H111	H11	0.619700	0.504600	0.272100
C201	C20	0.017500	0.592000	0.274200
H121	H12	0.070300	0.637300	0.264700
C211	C21	0.859600	0.457500	0.305800
C221	C22	0.049100	0.468500	0.315200
H131	H13	0.123600	0.431200	0.332400
C231	C23	0.127600	0.535500	0.298700
C241	C24	0.773600	0.386100	0.325900
C251	C25	0.697000	0.704100	0.038700
C261	C26	0.622700	0.694300	0.968700
C271	C27	0.736500	0.705800	0.913400
H141	H14	0.862500	0.716800	0.919300
C281	C28	0.660300	0.700400	0.849300
C291	C29	0.470200	0.684500	0.840300
H151	H15	0.418200	0.682400	0.797400
C301	C30	0.360300	0.671600	0.896300
C311	C31	0.436000	0.675800	0.960100
H161	H16	0.361900	0.666200	0.997200
C321	C32	0.780500	0.712800	0.788900
Cd51	Cd5	0.471780	0.735460	0.647330
Cd61	Cd6	0.959550	0.760220	0.672990
O211	O21	0.284600	0.799700	0.719300
O221	O22	0.033500	0.867400	0.731900
O231	O23	0.101700	0.123900	0.814700
O241	O24	0.373200	0.161300	0.855300
O251	O25	0.099600	0.819900	0.586000
O261	O26	0.814800	0.956100	0.810600
H171	H17	0.858900	0.928100	0.782800
O271	O27	0.352900	0.764700	0.546700
O281	O28	0.454200	0.794000	0.292700
O291	O29	0.202500	0.768300	0.234500
O301	O30	0.674200	0.844700	0.391800
H181	H18	0.628800	0.824400	0.358900
C331	C33	0.207800	0.858700	0.736500
C341	C34	0.325800	0.919800	0.763900
C351	C35	0.246600	0.987300	0.779400
H191	H19	0.119700	0.995400	0.772100
C361	C36	0.517500	0.908000	0.774200
H201	H20	0.570300	0.862700	0.764700
C371	C37	0.359600	0.042500	0.805800
C381	C38	0.549100	0.031500	0.815200
H211	H21	0.623600	0.068800	0.832400
C391	C39	0.627600	0.964500	0.798700
C401	C40	0.273600	0.113900	0.825900
C411	C41	0.197000	0.795900	0.538700
C421	C42	0.122700	0.805700	0.468700
C431	C43	0.236500	0.794200	0.413400
H221	H22	0.362500	0.783200	0.419300
C441	C44	0.160300	0.799600	0.349300
C451	C45	0.970200	0.815500	0.340300
H231	H23	0.918200	0.817600	0.297400
C461	C46	0.860300	0.828400	0.396300
C471	C47	0.936000	0.824200	0.460100
H241	H24	0.861900	0.833800	0.497200
C481	C48	0.280500	0.787200	0.288900
Cd71	Cd7	0.028220	0.235460	0.852670
Cd81	Cd8	0.540450	0.260220	0.827010
O311	O31	0.215400	0.299700	0.780700
O321	O32	0.466500	0.367400	0.768100
O331	O33	0.398300	0.623900	0.685300
O341	O34	0.126800	0.661300	0.644700
O351	O35	0.400400	0.319900	0.914000
O361	O36	0.685200	0.456100	0.689400
H251	H25	0.641100	0.428100	0.717200
O371	O37	0.147100	0.264700	0.953300
O381	O38	0.045800	0.294000	0.207300
O391	O39	0.297500	0.268300	0.265500
O401	O40	0.825800	0.344700	0.108200
H261	H26	0.871200	0.324400	0.141100
C491	C49	0.292200	0.358700	0.763500
C501	C50	0.174200	0.419800	0.736100
C511	C51	0.253400	0.487300	0.720600
H271	H27	0.380300	0.495400	0.727900
C521	C52	0.982500	0.408000	0.725800
H281	H28	0.929700	0.362700	0.735300
C531	C53	0.140400	0.542500	0.694200
C541	C54	0.950900	0.531500	0.684800
H291	H29	0.876400	0.568800	0.667600
C551	C55	0.872400	0.464500	0.701300
C561	C56	0.226400	0.613900	0.674100
C571	C57	0.303000	0.295900	0.961300
C581	C58	0.377300	0.305700	0.031300
C591	C59	0.263500	0.294200	0.086600
H301	H30	0.137500	0.283200	0.080700
C601	C60	0.339700	0.299600	0.150700
C611	C61	0.529800	0.315500	0.159700
H311	H31	0.581800	0.317600	0.202600
C621	C62	0.639700	0.328400	0.103700
C631	C63	0.564000	0.324200	0.039900
H321	H32	0.638100	0.333800	0.002800
C641	C64	0.219500	0.287200	0.211100
