data_XIPHIN_clean_PM
_symmetry_space_group_name_H-M	'P1'
_cell_length_a	14.956000
_cell_length_b	23.671000
_cell_length_c	9.026000
_cell_angle_alpha	90.000000
_cell_angle_beta	90.000000
_cell_angle_gamma	90.000000
_symmetry_Int_Tables_number 1

loop_
_symmetry_equiv_pos_as_xyz
'x,y,z'

loop_
_atom_site_label
_atom_site_type_symbol
_atom_site_fract_x
_atom_site_fract_y
_atom_site_fract_z
Fe11	Fe1	0.073150	0.054520	0.000000
O11	O1	0.132000	0.072760	0.199300
O21	O2	0.160900	0.125280	0.940600
O31	O3	0.265000	0.179510	0.048400
O41	O4	0.231600	0.130750	0.306100
C11	C1	0.188600	0.112500	0.197800
C21	C2	0.205900	0.141300	0.048400
Cl11	Cl1	0.181860	0.995970	0.901600
Fe21	Fe2	0.073150	0.554520	0.500000
O51	O5	0.132000	0.572760	0.699300
O61	O6	0.160900	0.625280	0.440600
O71	O7	0.265000	0.679510	0.548400
O81	O8	0.231600	0.630750	0.806100
C31	C3	0.188600	0.612500	0.697800
C41	C4	0.205900	0.641300	0.548400
Cl21	Cl2	0.181860	0.495970	0.401600
Fe31	Fe3	0.573150	0.054520	0.500000
O91	O9	0.632000	0.072760	0.699300
O101	O10	0.660900	0.125280	0.440600
O111	O11	0.765000	0.179510	0.548400
O121	O12	0.731600	0.130750	0.806100
C51	C5	0.688600	0.112500	0.697800
C61	C6	0.705900	0.141300	0.548400
Cl31	Cl3	0.681860	0.995970	0.401600
Fe41	Fe4	0.573150	0.554520	0.000000
O131	O13	0.632000	0.572760	0.199300
O141	O14	0.660900	0.625280	0.940600
O151	O15	0.765000	0.679510	0.048400
O161	O16	0.731600	0.630750	0.306100
C71	C7	0.688600	0.612500	0.197800
C81	C8	0.705900	0.641300	0.048400
Cl41	Cl4	0.681860	0.495970	0.901600
Fe51	Fe5	0.926850	0.945480	0.000000
O171	O17	0.868000	0.927240	0.199300
O181	O18	0.839100	0.874720	0.940600
O191	O19	0.735000	0.820490	0.048400
O201	O20	0.768400	0.869250	0.306100
C91	C9	0.811400	0.887500	0.197800
C101	C10	0.794100	0.858700	0.048400
Cl51	Cl5	0.818140	0.004030	0.901600
Fe61	Fe6	0.926850	0.445480	0.500000
O211	O21	0.868000	0.427240	0.699300
O221	O22	0.839100	0.374720	0.440600
O231	O23	0.735000	0.320490	0.548400
O241	O24	0.768400	0.369250	0.806100
C111	C11	0.811400	0.387500	0.697800
C121	C12	0.794100	0.358700	0.548400
Cl61	Cl6	0.818140	0.504030	0.401600
Fe71	Fe7	0.426850	0.945480	0.500000
O251	O25	0.368000	0.927240	0.699300
O261	O26	0.339100	0.874720	0.440600
O271	O27	0.235000	0.820490	0.548400
O281	O28	0.268400	0.869250	0.806100
C131	C13	0.311400	0.887500	0.697800
C141	C14	0.294100	0.858700	0.548400
Cl71	Cl7	0.318140	0.004030	0.401600
Fe81	Fe8	0.426850	0.445480	0.000000
O291	O29	0.368000	0.427240	0.199300
O301	O30	0.339100	0.374720	0.940600
O311	O31	0.235000	0.320490	0.048400
O321	O32	0.268400	0.369250	0.306100
C151	C15	0.311400	0.387500	0.197800
C161	C16	0.294100	0.358700	0.048400
Cl81	Cl8	0.318140	0.504030	0.901600
Fe91	Fe9	0.323150	0.195480	0.250000
O331	O33	0.382000	0.177240	0.449300
O341	O34	0.410900	0.124720	0.190600
O351	O35	0.515000	0.070490	0.298400
O361	O36	0.481600	0.119250	0.556100
C171	C17	0.438600	0.137500	0.447800
C181	C18	0.455900	0.108700	0.298400
Cl91	Cl9	0.431860	0.254030	0.151600
Fe101	Fe10	0.323150	0.695480	0.750000
O371	O37	0.382000	0.677240	0.949300
O381	O38	0.410900	0.624720	0.690600
O391	O39	0.515000	0.570490	0.798400
O401	O40	0.481600	0.619250	0.056100
C191	C19	0.438600	0.637500	0.947800
C201	C20	0.455900	0.608700	0.798400
Cl101	Cl10	0.431860	0.754030	0.651600
Fe111	Fe11	0.823150	0.195480	0.750000
O411	O41	0.882000	0.177240	0.949300
O421	O42	0.910900	0.124720	0.690600
O431	O43	0.015000	0.070490	0.798400
O441	O44	0.981600	0.119250	0.056100
C211	C21	0.938600	0.137500	0.947800
C221	C22	0.955900	0.108700	0.798400
Cl111	Cl11	0.931860	0.254030	0.651600
Fe121	Fe12	0.823150	0.695480	0.250000
O451	O45	0.882000	0.677240	0.449300
O461	O46	0.910900	0.624720	0.190600
O471	O47	0.015000	0.570490	0.298400
O481	O48	0.981600	0.619250	0.556100
C231	C23	0.938600	0.637500	0.447800
C241	C24	0.955900	0.608700	0.298400
Cl121	Cl12	0.931860	0.754030	0.151600
Fe131	Fe13	0.176850	0.304520	0.250000
O491	O49	0.118000	0.322760	0.449300
O501	O50	0.089100	0.375280	0.190600
O511	O51	0.985000	0.429510	0.298400
O521	O52	0.018400	0.380750	0.556100
C251	C25	0.061400	0.362500	0.447800
C261	C26	0.044100	0.391300	0.298400
Cl131	Cl13	0.068140	0.245970	0.151600
Fe141	Fe14	0.176850	0.804520	0.750000
O531	O53	0.118000	0.822760	0.949300
O541	O54	0.089100	0.875280	0.690600
O551	O55	0.985000	0.929510	0.798400
O561	O56	0.018400	0.880750	0.056100
C271	C27	0.061400	0.862500	0.947800
C281	C28	0.044100	0.891300	0.798400
Cl141	Cl14	0.068140	0.745970	0.651600
Fe151	Fe15	0.676850	0.304520	0.750000
O571	O57	0.618000	0.322760	0.949300
O581	O58	0.589100	0.375280	0.690600
O591	O59	0.485000	0.429510	0.798400
O601	O60	0.518400	0.380750	0.056100
C291	C29	0.561400	0.362500	0.947800
C301	C30	0.544100	0.391300	0.798400
Cl151	Cl15	0.568140	0.245970	0.651600
Fe161	Fe16	0.676850	0.804520	0.250000
O611	O61	0.618000	0.822760	0.449300
O621	O62	0.589100	0.875280	0.190600
O631	O63	0.485000	0.929510	0.298400
O641	O64	0.518400	0.880750	0.556100
C311	C31	0.561400	0.862500	0.447800
C321	C32	0.544100	0.891300	0.298400
Cl161	Cl16	0.568140	0.745970	0.151600
O651	O65	0.000000	0.000000	0.075900
O661	O66	0.000000	0.500000	0.575900
O671	O67	0.500000	0.000000	0.575900
O681	O68	0.500000	0.500000	0.075900
O691	O69	0.250000	0.250000	0.325900
O701	O70	0.250000	0.750000	0.825900
O711	O71	0.750000	0.250000	0.825900
O721	O72	0.750000	0.750000	0.325900
