data_XIPTAS_clean_PM
_symmetry_space_group_name_H-M	'P1'
_cell_length_a	7.666800
_cell_length_b	9.873400
_cell_length_c	14.905000
_cell_angle_alpha	90.000000
_cell_angle_beta	98.365000
_cell_angle_gamma	90.000000
_symmetry_Int_Tables_number 1

loop_
_symmetry_equiv_pos_as_xyz
'x,y,z'

loop_
_atom_site_label
_atom_site_type_symbol
_atom_site_fract_x
_atom_site_fract_y
_atom_site_fract_z
Sm11	Sm1	0.853430	0.955710	0.139700
Sm21	Sm2	0.646570	0.455710	0.360300
Sm31	Sm3	0.146570	0.044290	0.860300
Sm41	Sm4	0.353430	0.544290	0.639700
H11	H1	0.614900	0.698300	0.984200
H21	H2	0.825400	0.387400	0.134600
H31	H3	0.795600	0.389400	0.863600
H41	H4	0.885100	0.198300	0.515800
H51	H5	0.674600	0.887400	0.365400
H61	H6	0.704400	0.889400	0.636400
H71	H7	0.385100	0.301700	0.015800
H81	H8	0.174600	0.612600	0.865400
H91	H9	0.204400	0.610600	0.136400
H101	H10	0.114900	0.801700	0.484200
H111	H11	0.325400	0.112600	0.634600
H121	H12	0.295600	0.110600	0.363600
C11	C1	0.669200	0.613800	0.987800
C21	C2	0.721300	0.558600	0.073600
C31	C3	0.796100	0.430200	0.078900
C41	C4	0.826100	0.367400	0.999500
C51	C5	0.773600	0.431700	0.916500
C61	C6	0.692000	0.636800	0.155900
C71	C7	0.911200	0.230500	0.000900
C81	C8	0.456500	0.031300	0.038900
C91	C9	0.830800	0.113800	0.512200
C101	C10	0.778700	0.058600	0.426400
C111	C11	0.703900	0.930200	0.421100
C121	C12	0.673900	0.867400	0.500500
C131	C13	0.726400	0.931700	0.583500
C141	C14	0.808000	0.136800	0.344100
C151	C15	0.588800	0.730500	0.499100
C161	C16	0.043500	0.531300	0.461100
C171	C17	0.330800	0.386200	0.012200
C181	C18	0.278700	0.441400	0.926400
C191	C19	0.203900	0.569800	0.921100
C201	C20	0.173900	0.632600	0.000500
C211	C21	0.226400	0.568300	0.083500
C221	C22	0.308000	0.363200	0.844100
C231	C23	0.088800	0.769500	0.999100
C241	C24	0.543500	0.968700	0.961100
C251	C25	0.169200	0.886200	0.487800
C261	C26	0.221300	0.941400	0.573600
C271	C27	0.296100	0.069800	0.578900
C281	C28	0.326100	0.132600	0.499500
C291	C29	0.273600	0.068300	0.416500
C301	C30	0.192000	0.863200	0.655900
C311	C31	0.411200	0.269500	0.500900
C321	C32	0.956500	0.468700	0.538900
N11	N1	0.692500	0.552500	0.910500
N21	N2	0.807500	0.052500	0.589500
N31	N3	0.307500	0.447500	0.089500
N41	N4	0.192500	0.947500	0.410500
O11	O1	0.665900	0.763400	0.146210
O21	O2	0.696200	0.577000	0.229510
O31	O3	0.976200	0.194900	0.932700
O41	O4	0.910700	0.160400	0.071000
O51	O5	0.552600	0.050300	0.113100
O61	O6	0.296800	0.062100	0.020500
O71	O7	0.834100	0.263400	0.353790
O81	O8	0.803800	0.077000	0.270490
O91	O9	0.523800	0.694900	0.567300
O101	O10	0.589300	0.660400	0.429000
O111	O11	0.947400	0.550300	0.386900
O121	O12	0.203200	0.562100	0.479500
O131	O13	0.334100	0.236600	0.853790
O141	O14	0.303800	0.423000	0.770490
O151	O15	0.023800	0.805100	0.067300
O161	O16	0.089300	0.839600	0.929000
O171	O17	0.447400	0.949700	0.886900
O181	O18	0.703200	0.937900	0.979500
O191	O19	0.165900	0.736600	0.646210
O201	O20	0.196200	0.923000	0.729510
O211	O21	0.476200	0.305100	0.432700
O221	O22	0.410700	0.339600	0.571000
O231	O23	0.052600	0.449700	0.613100
O241	O24	0.796800	0.437900	0.520500
