data_XIQZIH_clean_PM
_symmetry_space_group_name_H-M	'P1'
_cell_length_a	17.487800
_cell_length_b	16.510800
_cell_length_c	7.138200
_cell_angle_alpha	90.000000
_cell_angle_beta	99.026000
_cell_angle_gamma	90.000000
_symmetry_Int_Tables_number 1

loop_
_symmetry_equiv_pos_as_xyz
'x,y,z'

loop_
_atom_site_label
_atom_site_type_symbol
_atom_site_fract_x
_atom_site_fract_y
_atom_site_fract_z
Cu11	Cu1	0.785040	0.772920	0.993360
N11	N1	0.778100	0.665800	0.148200
N21	N2	0.722100	0.365300	0.824600
N31	N3	0.873800	0.773200	0.843700
N41	N4	0.680000	0.772700	0.810100
C11	C1	0.833200	0.641200	0.267300
H11	H1	0.881900	0.662700	0.261900
C21	C2	0.827200	0.584000	0.407600
H21	H2	0.870900	0.569400	0.492700
C31	C3	0.757000	0.548900	0.420900
C41	C4	0.698300	0.574500	0.287500
H31	H3	0.649100	0.552900	0.284900
C51	C5	0.710300	0.631600	0.156800
H41	H4	0.668100	0.647400	0.068300
C61	C6	0.745200	0.486600	0.565100
C71	C7	0.691200	0.493700	0.680600
H51	H5	0.660900	0.540100	0.675300
C81	C8	0.681000	0.433700	0.803900
H61	H6	0.642700	0.440800	0.879300
C91	C9	0.776600	0.357200	0.702600
H71	H7	0.805200	0.309600	0.708000
C101	C10	0.790300	0.414300	0.577700
H81	H8	0.828200	0.406800	0.501300
C111	C11	0.887500	0.706200	0.750600
H91	H9	0.862800	0.658600	0.776600
C121	C12	0.937000	0.704100	0.616900
H101	H10	0.944800	0.655900	0.555100
C131	C13	0.974600	0.773700	0.576000
C141	C14	0.960200	0.839700	0.671000
H111	H11	0.984200	0.888200	0.648500
C151	C15	0.909700	0.837500	0.803700
H121	H12	0.901500	0.885200	0.867100
C161	C16	0.664600	0.722300	0.666100
H131	H13	0.703000	0.685700	0.646600
C171	C17	0.596200	0.719600	0.542900
H141	H14	0.589400	0.682300	0.444300
C181	C18	0.537700	0.772700	0.566000
C191	C19	0.553000	0.827100	0.718300
H151	H15	0.515600	0.864400	0.740300
C201	C20	0.622200	0.825300	0.832800
H161	H16	0.630800	0.862000	0.932700
Cu21	Cu2	0.285040	0.272920	0.993360
N51	N5	0.278100	0.165800	0.148200
N61	N6	0.222100	0.865300	0.824600
N71	N7	0.373800	0.273200	0.843700
N81	N8	0.180000	0.272700	0.810100
C211	C21	0.333200	0.141200	0.267300
H171	H17	0.381900	0.162700	0.261900
C221	C22	0.327200	0.084000	0.407600
H181	H18	0.370900	0.069400	0.492700
C231	C23	0.257000	0.048900	0.420900
C241	C24	0.198300	0.074500	0.287500
H191	H19	0.149100	0.052900	0.284900
C251	C25	0.210300	0.131600	0.156800
H201	H20	0.168100	0.147400	0.068300
C261	C26	0.245200	0.986600	0.565100
C271	C27	0.191200	0.993700	0.680600
H211	H21	0.160900	0.040100	0.675300
C281	C28	0.181000	0.933700	0.803900
H221	H22	0.142700	0.940800	0.879300
C291	C29	0.276600	0.857200	0.702600
H231	H23	0.305200	0.809600	0.708000
C301	C30	0.290300	0.914300	0.577700
H241	H24	0.328200	0.906800	0.501300
C311	C31	0.387500	0.206200	0.750600
H251	H25	0.362800	0.158600	0.776600
C321	C32	0.437000	0.204100	0.616900
H261	H26	0.444800	0.155900	0.555100
C331	C33	0.474600	0.273700	0.576000
C341	C34	0.460200	0.339700	0.671000
H271	H27	0.484200	0.388200	0.648500
C351	C35	0.409700	0.337500	0.803700
H281	H28	0.401500	0.385200	0.867100
C361	C36	0.164600	0.222300	0.666100
H291	H29	0.203000	0.185700	0.646600
C371	C37	0.096200	0.219600	0.542900
H301	H30	0.089400	0.182300	0.444300
C381	C38	0.037700	0.272700	0.566000
C391	C39	0.053000	0.327100	0.718300
H311	H31	0.015600	0.364400	0.740300
C401	C40	0.122200	0.325300	0.832800
H321	H32	0.130800	0.362000	0.932700
Cu31	Cu3	0.214960	0.772920	0.006640
N91	N9	0.221900	0.665800	0.851800
N101	N10	0.277900	0.365300	0.175400
N111	N11	0.126200	0.773200	0.156300
N121	N12	0.320000	0.772700	0.189900
C411	C41	0.166800	0.641200	0.732700
H331	H33	0.118100	0.662700	0.738100
C421	C42	0.172800	0.584000	0.592400
H341	H34	0.129100	0.569400	0.507300
C431	C43	0.243000	0.548900	0.579100
C441	C44	0.301700	0.574500	0.712500
H351	H35	0.350900	0.552900	0.715100
C451	C45	0.289700	0.631600	0.843200
H361	H36	0.331900	0.647400	0.931700
C461	C46	0.254800	0.486600	0.434900
C471	C47	0.308800	0.493700	0.319400
H371	H37	0.339100	0.540100	0.324700
C481	C48	0.319000	0.433700	0.196100
H381	H38	0.357300	0.440800	0.120700
C491	C49	0.223400	0.357200	0.297400
H391	H39	0.194800	0.309600	0.292000
C501	C50	0.209700	0.414300	0.422300
H401	H40	0.171800	0.406800	0.498700
C511	C51	0.112500	0.706200	0.249400
H411	H41	0.137200	0.658600	0.223400
C521	C52	0.063000	0.704100	0.383100
H421	H42	0.055200	0.655900	0.444900
C531	C53	0.025400	0.773700	0.424000
C541	C54	0.039800	0.839700	0.329000
H431	H43	0.015800	0.888200	0.351500
C551	C55	0.090300	0.837500	0.196300
H441	H44	0.098500	0.885200	0.132900
C561	C56	0.335400	0.722300	0.333900
H451	H45	0.297000	0.685700	0.353400
C571	C57	0.403800	0.719600	0.457100
H461	H46	0.410600	0.682300	0.555700
C581	C58	0.462300	0.772700	0.434000
C591	C59	0.447000	0.827100	0.281700
H471	H47	0.484400	0.864400	0.259700
C601	C60	0.377800	0.825300	0.167200
H481	H48	0.369200	0.862000	0.067300
Cu41	Cu4	0.714960	0.272920	0.006640
N131	N13	0.721900	0.165800	0.851800
N141	N14	0.777900	0.865300	0.175400
N151	N15	0.626200	0.273200	0.156300
N161	N16	0.820000	0.272700	0.189900
C611	C61	0.666800	0.141200	0.732700
H491	H49	0.618100	0.162700	0.738100
C621	C62	0.672800	0.084000	0.592400
H501	H50	0.629100	0.069400	0.507300
C631	C63	0.743000	0.048900	0.579100
C641	C64	0.801700	0.074500	0.712500
H511	H51	0.850900	0.052900	0.715100
C651	C65	0.789700	0.131600	0.843200
H521	H52	0.831900	0.147400	0.931700
C661	C66	0.754800	0.986600	0.434900
C671	C67	0.808800	0.993700	0.319400
H531	H53	0.839100	0.040100	0.324700
C681	C68	0.819000	0.933700	0.196100
H541	H54	0.857300	0.940800	0.120700
C691	C69	0.723400	0.857200	0.297400
H551	H55	0.694800	0.809600	0.292000
C701	C70	0.709700	0.914300	0.422300
H561	H56	0.671800	0.906800	0.498700
C711	C71	0.612500	0.206200	0.249400
H571	H57	0.637200	0.158600	0.223400
C721	C72	0.563000	0.204100	0.383100
H581	H58	0.555200	0.155900	0.444900
C731	C73	0.525400	0.273700	0.424000
C741	C74	0.539800	0.339700	0.329000
H591	H59	0.515800	0.388200	0.351500
C751	C75	0.590300	0.337500	0.196300
H601	H60	0.598500	0.385200	0.132900
C761	C76	0.835400	0.222300	0.333900
H611	H61	0.797000	0.185700	0.353400
C771	C77	0.903800	0.219600	0.457100
H621	H62	0.910600	0.182300	0.555700
C781	C78	0.962300	0.272700	0.434000
C791	C79	0.947000	0.327100	0.281700
H631	H63	0.984400	0.364400	0.259700
C801	C80	0.877800	0.325300	0.167200
H641	H64	0.869200	0.362000	0.067300
