data_XIRHUC_clean_PM
_symmetry_space_group_name_H-M	'P1'
_cell_length_a	9.789300
_cell_length_b	10.364100
_cell_length_c	10.664900
_cell_angle_alpha	111.801000
_cell_angle_beta	100.498000
_cell_angle_gamma	109.257000
_symmetry_Int_Tables_number 1

loop_
_symmetry_equiv_pos_as_xyz
'x,y,z'

loop_
_atom_site_label
_atom_site_type_symbol
_atom_site_fract_x
_atom_site_fract_y
_atom_site_fract_z
Zn11	Zn1	0.591020	0.468090	0.797010
O11	O1	0.553400	0.706000	0.720000
O21	O2	0.549100	0.644700	0.899000
O31	O3	0.324600	0.346000	0.560600
O41	O4	0.405900	0.268500	0.714000
O51	O5	0.691900	0.459600	0.653000
O61	O6	0.908800	0.647000	0.828500
N11	N1	0.700900	0.444300	0.964900
H11	H1	0.629700	0.398500	0.991000
C11	C1	0.542500	0.729700	0.838400
C21	C2	0.519900	0.869500	0.923100
C31	C3	0.477800	0.948900	0.854600
H21	H2	0.463200	0.914700	0.757200
C41	C4	0.542500	0.922100	0.070000
H31	H3	0.571100	0.870300	0.116800
C51	C5	0.303400	0.256000	0.612100
C61	C6	0.146100	0.121300	0.552900
C71	C7	0.018800	0.127200	0.479000
H41	H4	0.031100	0.212600	0.464000
C81	C8	0.126900	0.993000	0.573100
H51	H5	0.212100	0.987300	0.621800
C91	C9	0.837600	0.548400	0.702900
C101	C10	0.920900	0.522500	0.596500
C111	C11	0.841200	0.417600	0.451600
H61	H6	0.734500	0.362300	0.418700
C121	C12	0.080600	0.604800	0.643800
H71	H7	0.135000	0.675500	0.740500
C131	C13	0.774800	0.341500	0.917400
H81	H8	0.701900	0.247800	0.833200
H91	H9	0.809200	0.318000	0.992900
H101	H10	0.861600	0.391700	0.895200
C141	C14	0.809500	0.590500	0.094400
H111	H11	0.758200	0.655100	0.123400
H121	H12	0.896100	0.642400	0.073000
H131	H13	0.844800	0.568900	0.171100
Zn21	Zn2	0.408980	0.531910	0.202990
O71	O7	0.446600	0.294000	0.280000
O81	O8	0.450900	0.355300	0.101000
O91	O9	0.675400	0.654000	0.439400
O101	O10	0.594100	0.731500	0.286000
O111	O11	0.308100	0.540400	0.347000
O121	O12	0.091200	0.353000	0.171500
N21	N2	0.299100	0.555700	0.035100
H141	H14	0.370300	0.601500	0.009000
C151	C15	0.457500	0.270300	0.161600
C161	C16	0.480100	0.130500	0.076900
C171	C17	0.522200	0.051100	0.145400
H151	H15	0.536800	0.085300	0.242800
C181	C18	0.457500	0.077900	0.930000
H161	H16	0.428900	0.129700	0.883200
C191	C19	0.696600	0.744000	0.387900
C201	C20	0.853900	0.878700	0.447100
C211	C21	0.981200	0.872800	0.521000
H171	H17	0.968900	0.787400	0.536000
C221	C22	0.873100	0.007000	0.426900
H181	H18	0.787900	0.012700	0.378200
C231	C23	0.162400	0.451600	0.297100
C241	C24	0.079100	0.477500	0.403500
C251	C25	0.158800	0.582400	0.548400
H191	H19	0.265500	0.637700	0.581300
C261	C26	0.919400	0.395200	0.356200
H201	H20	0.865000	0.324500	0.259500
C271	C27	0.225200	0.658500	0.082600
H211	H21	0.298100	0.752200	0.166800
H221	H22	0.190800	0.682000	0.007100
H231	H23	0.138400	0.608300	0.104800
C281	C28	0.190500	0.409500	0.905600
H241	H24	0.241800	0.344900	0.876600
H251	H25	0.103900	0.357600	0.927000
H261	H26	0.155200	0.431100	0.828900
Na11	Na1	0.500000	0.500000	0.500000
