data_XISPUM_clean_PM
_symmetry_space_group_name_H-M	'P1'
_cell_length_a	7.244300
_cell_length_b	13.812700
_cell_length_c	15.474600
_cell_angle_alpha	80.352000
_cell_angle_beta	87.669000
_cell_angle_gamma	89.842000
_symmetry_Int_Tables_number 1

loop_
_symmetry_equiv_pos_as_xyz
'x,y,z'

loop_
_atom_site_label
_atom_site_type_symbol
_atom_site_fract_x
_atom_site_fract_y
_atom_site_fract_z
Pt11	Pt1	0.002880	0.260610	0.462870
N11	N1	0.508200	0.589500	0.384000
N21	N2	0.693700	0.418900	0.461000
N31	N3	0.311000	0.099900	0.489900
N41	N4	0.689900	0.100500	0.486100
N51	N5	0.496700	0.993200	0.630000
N61	N6	0.312500	0.418500	0.462500
C11	C1	0.514700	0.553800	0.306800
H11	H1	0.518200	0.486100	0.309100
C21	C2	0.516300	0.612200	0.227000
H21	H2	0.520200	0.584400	0.176200
C31	C3	0.512100	0.714900	0.221400
C41	C4	0.507500	0.751900	0.300200
H31	H3	0.506000	0.819400	0.299300
C51	C5	0.505200	0.689000	0.378800
H41	H4	0.501500	0.715200	0.430500
C61	C6	0.511000	0.778300	0.137500
C71	C7	0.507500	0.826100	0.066000
C81	C8	0.501500	0.876300	0.981500
C91	C9	0.808200	0.363200	0.454900
C101	C10	0.655200	0.985500	0.673800
H51	H5	0.766900	0.994400	0.641600
C111	C11	0.658700	0.965000	0.764300
H61	H6	0.770700	0.961500	0.792000
C121	C12	0.493500	0.949700	0.813600
C131	C13	0.329800	0.963200	0.770000
H71	H7	0.217000	0.957900	0.801400
C141	C14	0.335900	0.985100	0.678100
H81	H8	0.225500	0.994300	0.649300
C151	C15	0.497100	0.915100	0.906600
C161	C16	0.196600	0.158000	0.479900
C171	C17	0.805500	0.158500	0.477200
C181	C18	0.196500	0.362800	0.457000
Pt21	Pt2	0.997120	0.739390	0.537130
N71	N7	0.491800	0.410500	0.616000
N81	N8	0.306300	0.581100	0.539000
N91	N9	0.689000	0.900100	0.510100
N101	N10	0.310100	0.899500	0.513900
N111	N11	0.503300	0.006800	0.370000
N121	N12	0.687500	0.581500	0.537500
C191	C19	0.485300	0.446200	0.693200
H91	H9	0.481800	0.513900	0.690900
C201	C20	0.483700	0.387800	0.773000
H101	H10	0.479800	0.415600	0.823800
C211	C21	0.487900	0.285100	0.778600
C221	C22	0.492500	0.248100	0.699800
H111	H11	0.494000	0.180600	0.700700
C231	C23	0.494800	0.311000	0.621200
H121	H12	0.498500	0.284800	0.569500
C241	C24	0.489000	0.221700	0.862500
C251	C25	0.492500	0.173900	0.934000
C261	C26	0.498500	0.123700	0.018500
C271	C27	0.191800	0.636800	0.545100
C281	C28	0.344800	0.014500	0.326200
H131	H13	0.233100	0.005600	0.358400
C291	C29	0.341300	0.035000	0.235700
H141	H14	0.229300	0.038500	0.208000
C301	C30	0.506500	0.050300	0.186400
C311	C31	0.670200	0.036800	0.230000
H151	H15	0.783000	0.042100	0.198600
C321	C32	0.664100	0.014900	0.321900
H161	H16	0.774500	0.005700	0.350700
C331	C33	0.502900	0.084900	0.093400
C341	C34	0.803400	0.842000	0.520100
C351	C35	0.194500	0.841500	0.522800
C361	C36	0.803500	0.637200	0.543000
Fe11	Fe1	0.500000	0.500000	0.500000
Fe21	Fe2	0.500000	0.000000	0.500000
