data_XISPEW02_clean_PM
_symmetry_space_group_name_H-M	'P1'
_cell_length_a	7.517400
_cell_length_b	14.367600
_cell_length_c	16.350000
_cell_angle_alpha	76.831000
_cell_angle_beta	84.282000
_cell_angle_gamma	89.965000
_symmetry_Int_Tables_number 1

loop_
_symmetry_equiv_pos_as_xyz
'x,y,z'

loop_
_atom_site_label
_atom_site_type_symbol
_atom_site_fract_x
_atom_site_fract_y
_atom_site_fract_z
Pt11	Pt1	0.493650	0.238900	0.032560
N11	N1	0.020000	0.100400	0.876200
N21	N2	0.191000	0.086500	0.035300
N31	N3	0.799000	0.390700	0.020100
N41	N4	0.204000	0.397900	0.007000
N51	N5	0.993000	0.476000	0.137400
N61	N6	0.788000	0.082300	0.038700
C11	C1	0.043000	0.065700	0.809200
H11	H1	0.053800	0.000200	0.814500
C21	C2	0.053000	0.128300	0.727900
H21	H2	0.074400	0.103400	0.680200
C31	C3	0.030000	0.228500	0.718300
C41	C4	0.013000	0.261700	0.791600
H31	H3	0.005700	0.326900	0.789000
C51	C5	0.006000	0.197600	0.868200
H41	H4	0.991200	0.220900	0.917000
C61	C6	0.031000	0.293000	0.635100
C71	C7	0.016000	0.334000	0.563400
C81	C8	0.301000	0.142200	0.037500
C91	C9	0.688000	0.336400	0.025900
C101	C10	0.310000	0.340600	0.018100
C111	C11	0.680000	0.138300	0.041200
C121	C12	0.148000	0.487000	0.171900
H51	H5	0.252500	0.506500	0.136500
C131	C13	0.153000	0.468000	0.261700
H61	H6	0.258000	0.475400	0.285400
C141	C14	0.990000	0.436000	0.313200
C151	C15	0.837000	0.432000	0.277300
H71	H7	0.729300	0.416900	0.311300
C161	C16	0.838000	0.451000	0.187500
H81	H8	0.732500	0.447100	0.163500
C171	C17	0.995000	0.407000	0.404500
C181	C18	0.006000	0.381400	0.477700
Pt21	Pt2	0.506350	0.761100	0.967440
N71	N7	0.980000	0.899600	0.123800
N81	N8	0.809000	0.913500	0.964700
N91	N9	0.201000	0.609300	0.979900
N101	N10	0.796000	0.602100	0.993000
N111	N11	0.007000	0.524000	0.862600
N121	N12	0.212000	0.917700	0.961300
C191	C19	0.957000	0.934300	0.190800
H91	H9	0.946200	0.999800	0.185500
C201	C20	0.947000	0.871700	0.272100
H101	H10	0.925600	0.896600	0.319800
C211	C21	0.970000	0.771500	0.281700
C221	C22	0.987000	0.738300	0.208400
H111	H11	0.994300	0.673100	0.211000
C231	C23	0.994000	0.802400	0.131800
H121	H12	0.008800	0.779100	0.083000
C241	C24	0.969000	0.707000	0.364900
C251	C25	0.984000	0.666000	0.436600
C261	C26	0.699000	0.857800	0.962500
C271	C27	0.312000	0.663600	0.974100
C281	C28	0.690000	0.659400	0.981900
C291	C29	0.320000	0.861700	0.958800
C301	C30	0.852000	0.513000	0.828100
H131	H13	0.747500	0.493500	0.863500
C311	C31	0.847000	0.532000	0.738300
H141	H14	0.742000	0.524600	0.714600
C321	C32	0.010000	0.564000	0.686800
C331	C33	0.163000	0.568000	0.722700
H151	H15	0.270700	0.583100	0.688700
C341	C34	0.162000	0.549000	0.812500
H161	H16	0.267500	0.552900	0.836500
C351	C35	0.005000	0.593000	0.595500
C361	C36	0.994000	0.618600	0.522300
Fe11	Fe1	0.000000	0.500000	0.000000
Fe21	Fe2	0.000000	0.000000	0.000000
