data_XISPEW01_clean_PM
_symmetry_space_group_name_H-M	'P1'
_cell_length_a	7.363500
_cell_length_b	14.111200
_cell_length_c	16.390600
_cell_angle_alpha	74.663000
_cell_angle_beta	82.349000
_cell_angle_gamma	89.878000
_symmetry_Int_Tables_number 1

loop_
_symmetry_equiv_pos_as_xyz
'x,y,z'

loop_
_atom_site_label
_atom_site_type_symbol
_atom_site_fract_x
_atom_site_fract_y
_atom_site_fract_z
Pt11	Pt1	0.491720	0.228370	0.034500
N11	N1	0.021300	0.094240	0.883850
N21	N2	0.178900	0.081260	0.029150
N31	N3	0.799200	0.384470	0.024520
N41	N4	0.210800	0.396210	0.004160
N51	N5	0.994600	0.480170	0.139800
N61	N6	0.798600	0.075000	0.035870
C11	C1	0.042100	0.061270	0.813650
H11	H1	0.052800	0.994100	0.820200
C21	C2	0.048500	0.122100	0.732350
H21	H2	0.063800	0.096100	0.685400
C31	C3	0.031800	0.222500	0.720960
C41	C4	0.014100	0.256800	0.793000
H31	H3	0.005100	0.323800	0.787800
C51	C5	0.009700	0.191840	0.872540
H41	H4	0.998200	0.216400	0.920200
C61	C6	0.028800	0.286300	0.637010
C71	C7	0.021000	0.331900	0.565280
C81	C8	0.294200	0.132610	0.035150
C91	C9	0.686100	0.325950	0.029870
C101	C10	0.313200	0.334410	0.016200
C111	C11	0.680200	0.126740	0.042470
C121	C12	0.145400	0.492700	0.173070
H51	H5	0.252300	0.516000	0.136000
C131	C13	0.151200	0.472900	0.259480
H61	H6	0.259400	0.483500	0.279700
C141	C14	0.994000	0.437100	0.316130
C151	C15	0.836200	0.424800	0.282150
H71	H7	0.727400	0.401700	0.317800
C161	C16	0.842800	0.447400	0.194440
H81	H8	0.735700	0.439300	0.172300
C171	C17	0.998400	0.408600	0.406900
C181	C18	0.008400	0.376900	0.480720
Pt21	Pt2	0.508280	0.771630	0.965500
N71	N7	0.978700	0.905760	0.116150
N81	N8	0.821100	0.918740	0.970850
N91	N9	0.200800	0.615530	0.975480
N101	N10	0.789200	0.603790	0.995840
N111	N11	0.005400	0.519830	0.860200
N121	N12	0.201400	0.925000	0.964130
C191	C19	0.957900	0.938730	0.186350
H91	H9	0.947200	0.005900	0.179800
C201	C20	0.951500	0.877900	0.267650
H101	H10	0.936200	0.903900	0.314600
C211	C21	0.968200	0.777500	0.279040
C221	C22	0.985900	0.743200	0.207000
H111	H11	0.994900	0.676200	0.212200
C231	C23	0.990300	0.808160	0.127460
H121	H12	0.001800	0.783600	0.079800
C241	C24	0.971200	0.713700	0.362990
C251	C25	0.979000	0.668100	0.434720
C261	C26	0.705800	0.867390	0.964850
C271	C27	0.313900	0.674050	0.970130
C281	C28	0.686800	0.665590	0.983800
C291	C29	0.319800	0.873260	0.957530
C301	C30	0.854600	0.507300	0.826930
H131	H13	0.747700	0.484000	0.864000
C311	C31	0.848800	0.527100	0.740520
H141	H14	0.740600	0.516500	0.720300
C321	C32	0.006000	0.562900	0.683870
C331	C33	0.163800	0.575200	0.717850
H151	H15	0.272600	0.598300	0.682200
C341	C34	0.157200	0.552600	0.805560
H161	H16	0.264300	0.560700	0.827700
C351	C35	0.001600	0.591400	0.593100
C361	C36	0.991600	0.623100	0.519280
Fe11	Fe1	0.000000	0.500000	0.000000
Fe21	Fe2	0.000000	0.000000	0.000000
