data_XISPEW_clean_PM
_symmetry_space_group_name_H-M	'P1'
_cell_length_a	7.245200
_cell_length_b	13.970600
_cell_length_c	16.377900
_cell_angle_alpha	73.531000
_cell_angle_beta	83.678000
_cell_angle_gamma	89.998000
_symmetry_Int_Tables_number 1

loop_
_symmetry_equiv_pos_as_xyz
'x,y,z'

loop_
_atom_site_label
_atom_site_type_symbol
_atom_site_fract_x
_atom_site_fract_y
_atom_site_fract_z
Pt11	Pt1	0.493090	0.237530	0.032570
N11	N1	0.022300	0.094300	0.881600
N21	N2	0.181300	0.083700	0.028100
N31	N3	0.811600	0.395200	0.019900
N41	N4	0.193400	0.403000	0.008100
N51	N5	0.992500	0.480400	0.125900
N61	N6	0.799000	0.079400	0.031700
C11	C1	0.045000	0.060500	0.812400
H11	H1	0.054400	0.992100	0.820600
C21	C2	0.055200	0.122900	0.729200
H21	H2	0.073800	0.096800	0.682700
C31	C3	0.036900	0.225700	0.716400
C41	C4	0.017200	0.262200	0.787100
H31	H3	0.008100	0.330400	0.780100
C51	C5	0.011400	0.195700	0.868500
H41	H4	0.999700	0.220600	0.915800
C61	C6	0.033400	0.289900	0.630700
C71	C7	0.023900	0.336100	0.557000
C81	C8	0.295300	0.139000	0.033400
C91	C9	0.693900	0.336800	0.026600
C101	C10	0.304100	0.342700	0.018300
C111	C11	0.684200	0.134800	0.037600
C121	C12	0.150700	0.484600	0.162300
H51	H5	0.261800	0.501100	0.126500
C131	C13	0.156400	0.465800	0.249800
H61	H6	0.267800	0.471800	0.271600
C141	C14	0.992100	0.437700	0.304400
C151	C15	0.827300	0.433200	0.268600
H71	H7	0.715200	0.415500	0.303500
C161	C16	0.833000	0.455400	0.179600
H81	H8	0.722400	0.453100	0.156200
C171	C17	0.996400	0.410100	0.396200
C181	C18	0.011100	0.379200	0.471400
Pt21	Pt2	0.506910	0.762470	0.967430
N71	N7	0.977700	0.905700	0.118400
N81	N8	0.818700	0.916300	0.971900
N91	N9	0.188400	0.604800	0.980100
N101	N10	0.806600	0.597000	0.991900
N111	N11	0.007500	0.519600	0.874100
N121	N12	0.201000	0.920600	0.968300
C191	C19	0.955000	0.939500	0.187600
H91	H9	0.945600	0.007900	0.179400
C201	C20	0.944800	0.877100	0.270800
H101	H10	0.926200	0.903200	0.317300
C211	C21	0.963100	0.774300	0.283600
C221	C22	0.982800	0.737800	0.212900
H111	H11	0.991900	0.669600	0.219900
C231	C23	0.988600	0.804300	0.131500
H121	H12	0.000300	0.779400	0.084200
C241	C24	0.966600	0.710100	0.369300
C251	C25	0.976100	0.663900	0.443000
C261	C26	0.704700	0.861000	0.966600
C271	C27	0.306100	0.663200	0.973400
C281	C28	0.695900	0.657300	0.981700
C291	C29	0.315800	0.865200	0.962400
C301	C30	0.849300	0.515400	0.837700
H131	H13	0.738200	0.498900	0.873500
C311	C31	0.843600	0.534200	0.750200
H141	H14	0.732200	0.528200	0.728400
C321	C32	0.007900	0.562300	0.695600
C331	C33	0.172700	0.566800	0.731400
H151	H15	0.284800	0.584500	0.696500
C341	C34	0.167000	0.544600	0.820400
H161	H16	0.277600	0.546900	0.843800
C351	C35	0.003600	0.589900	0.603800
C361	C36	0.988900	0.620800	0.528600
Fe11	Fe1	0.000000	0.500000	0.000000
Fe21	Fe2	0.000000	0.000000	0.000000
