data_XISXEE_clean_PM
_symmetry_space_group_name_H-M	'P1'
_cell_length_a	14.992700
_cell_length_b	17.232100
_cell_length_c	24.798000
_cell_angle_alpha	90.000000
_cell_angle_beta	90.000000
_cell_angle_gamma	90.000000
_symmetry_Int_Tables_number 1

loop_
_symmetry_equiv_pos_as_xyz
'x,y,z'

loop_
_atom_site_label
_atom_site_type_symbol
_atom_site_fract_x
_atom_site_fract_y
_atom_site_fract_z
O11	O1	0.857100	0.216700	0.441740
O21	O2	0.309200	0.032700	0.061310
O31	O3	0.246500	0.148500	0.058760
C11	C1	0.075600	0.023100	0.206630
C21	C2	0.976100	0.066800	0.285040
C31	C3	0.193200	0.062200	0.122900
C41	C4	0.148700	0.977300	0.195600
H11	H1	0.159200	0.933400	0.216500
C51	C5	0.123500	0.108700	0.135000
H21	H2	0.115700	0.154800	0.116100
C61	C6	0.206900	0.995300	0.153900
H31	H3	0.255000	0.963000	0.146600
C71	C7	0.063300	0.088800	0.175000
H41	H4	0.013700	0.120100	0.180900
O41	O4	0.972600	0.288400	0.415900
C81	C8	0.898100	0.059900	0.316300
H51	H5	0.857900	0.019900	0.309600
C91	C9	0.881400	0.113200	0.357200
H61	H6	0.830100	0.108600	0.378100
C101	C10	0.256100	0.083200	0.077500
C111	C11	0.940600	0.172800	0.367000
C121	C12	0.031800	0.127600	0.294800
H71	H7	0.082600	0.134000	0.273700
C131	C13	0.013800	0.179400	0.335200
H81	H8	0.053000	0.220400	0.341000
C141	C14	0.919900	0.229400	0.412300
O51	O5	0.142900	0.783300	0.441740
O61	O6	0.690800	0.967300	0.061310
O71	O7	0.753500	0.851500	0.058760
C151	C15	0.924400	0.976900	0.206630
C161	C16	0.023900	0.933200	0.285040
C171	C17	0.806800	0.937800	0.122900
C181	C18	0.851300	0.022700	0.195600
H91	H9	0.840800	0.066600	0.216500
C191	C19	0.876500	0.891300	0.135000
H101	H10	0.884300	0.845200	0.116100
C201	C20	0.793100	0.004700	0.153900
H111	H11	0.745000	0.037000	0.146600
C211	C21	0.936700	0.911200	0.175000
H121	H12	0.986300	0.879900	0.180900
O81	O8	0.027400	0.711600	0.415900
C221	C22	0.101900	0.940100	0.316300
H131	H13	0.142100	0.980100	0.309600
C231	C23	0.118600	0.886800	0.357200
H141	H14	0.169900	0.891400	0.378100
C241	C24	0.743900	0.916800	0.077500
C251	C25	0.059400	0.827200	0.367000
C261	C26	0.968200	0.872400	0.294800
H151	H15	0.917400	0.866000	0.273700
C271	C27	0.986200	0.820600	0.335200
H161	H16	0.947000	0.779600	0.341000
C281	C28	0.080100	0.770600	0.412300
O91	O9	0.642900	0.716700	0.058260
O101	O10	0.190800	0.532700	0.438690
O111	O11	0.253500	0.648500	0.441240
C291	C29	0.424400	0.523100	0.293370
C301	C30	0.523900	0.566800	0.214960
C311	C31	0.306800	0.562200	0.377100
C321	C32	0.351300	0.477300	0.304400
H171	H17	0.340800	0.433400	0.283500
C331	C33	0.376500	0.608700	0.365000
H181	H18	0.384300	0.654800	0.383900
C341	C34	0.293100	0.495300	0.346100
H191	H19	0.245000	0.463000	0.353400
C351	C35	0.436700	0.588800	0.325000
H201	H20	0.486300	0.620100	0.319100
O121	O12	0.527400	0.788400	0.084100
C361	C36	0.601900	0.559900	0.183700
H211	H21	0.642100	0.519900	0.190400
C371	C37	0.618600	0.613200	0.142800
H221	H22	0.669900	0.608600	0.121900
C381	C38	0.243900	0.583200	0.422500
C391	C39	0.559400	0.672800	0.133000
C401	C40	0.468200	0.627600	0.205200
H231	H23	0.417400	0.634000	0.226300
C411	C41	0.486200	0.679400	0.164800
H241	H24	0.447000	0.720400	0.159000
C421	C42	0.580100	0.729400	0.087700
O131	O13	0.357100	0.283300	0.058260
O141	O14	0.809200	0.467300	0.438690
O151	O15	0.746500	0.351500	0.441240
C431	C43	0.575600	0.476900	0.293370
C441	C44	0.476100	0.433200	0.214960
C451	C45	0.693200	0.437800	0.377100
C461	C46	0.648700	0.522700	0.304400
H251	H25	0.659200	0.566600	0.283500
C471	C47	0.623500	0.391300	0.365000
H261	H26	0.615700	0.345200	0.383900
C481	C48	0.706900	0.504700	0.346100
H271	H27	0.755000	0.537000	0.353400
C491	C49	0.563300	0.411200	0.325000
H281	H28	0.513700	0.379900	0.319100
O161	O16	0.472600	0.211600	0.084100
C501	C50	0.398100	0.440100	0.183700
H291	H29	0.357900	0.480100	0.190400
C511	C51	0.381400	0.386800	0.142800
H301	H30	0.330100	0.391400	0.121900
C521	C52	0.756100	0.416800	0.422500
C531	C53	0.440600	0.327200	0.133000
C541	C54	0.531800	0.372400	0.205200
H311	H31	0.582600	0.366000	0.226300
C551	C55	0.513800	0.320600	0.164800
H321	H32	0.553000	0.279600	0.159000
C561	C56	0.419900	0.270600	0.087700
O171	O17	0.142900	0.783300	0.558260
O181	O18	0.690800	0.967300	0.938690
O191	O19	0.753500	0.851500	0.941240
C571	C57	0.924400	0.976900	0.793370
C581	C58	0.023900	0.933200	0.714960
C591	C59	0.806800	0.937800	0.877100
C601	C60	0.851300	0.022700	0.804400
H331	H33	0.840800	0.066600	0.783500
C611	C61	0.876500	0.891300	0.865000
H341	H34	0.884300	0.845200	0.883900
C621	C62	0.793100	0.004700	0.846100
H351	H35	0.745000	0.037000	0.853400
C631	C63	0.936700	0.911200	0.825000
H361	H36	0.986300	0.879900	0.819100
O201	O20	0.027400	0.711600	0.584100
C641	C64	0.101900	0.940100	0.683700
H371	H37	0.142100	0.980100	0.690400
C651	C65	0.118600	0.886800	0.642800
H381	H38	0.169900	0.891400	0.621900
C661	C66	0.743900	0.916800	0.922500
C671	C67	0.059400	0.827200	0.633000
C681	C68	0.968200	0.872400	0.705200
H391	H39	0.917400	0.866000	0.726300
C691	C69	0.986200	0.820600	0.664800
H401	H40	0.947000	0.779600	0.659000
C701	C70	0.080100	0.770600	0.587700
O211	O21	0.857100	0.216700	0.558260
O221	O22	0.309200	0.032700	0.938690
O231	O23	0.246500	0.148500	0.941240
C711	C71	0.075600	0.023100	0.793370
C721	C72	0.976100	0.066800	0.714960
C731	C73	0.193200	0.062200	0.877100
C741	C74	0.148700	0.977300	0.804400
H411	H41	0.159200	0.933400	0.783500
C751	C75	0.123500	0.108700	0.865000
H421	H42	0.115700	0.154800	0.883900
C761	C76	0.206900	0.995300	0.846100
H431	H43	0.255000	0.963000	0.853400
C771	C77	0.063300	0.088800	0.825000
H441	H44	0.013700	0.120100	0.819100
O241	O24	0.972600	0.288400	0.584100
C781	C78	0.898100	0.059900	0.683700
H451	H45	0.857900	0.019900	0.690400
C791	C79	0.881400	0.113200	0.642800
H461	H46	0.830100	0.108600	0.621900
C801	C80	0.256100	0.083200	0.922500
C811	C81	0.940600	0.172800	0.633000
C821	C82	0.031800	0.127600	0.705200
H471	H47	0.082600	0.134000	0.726300
C831	C83	0.013800	0.179400	0.664800
H481	H48	0.053000	0.220400	0.659000
C841	C84	0.919900	0.229400	0.587700
O251	O25	0.357100	0.283300	0.941740
O261	O26	0.809200	0.467300	0.561310
O271	O27	0.746500	0.351500	0.558760
C851	C85	0.575600	0.476900	0.706630
C861	C86	0.476100	0.433200	0.785040
C871	C87	0.693200	0.437800	0.622900
C881	C88	0.648700	0.522700	0.695600
H491	H49	0.659200	0.566600	0.716500
C891	C89	0.623500	0.391300	0.635000
H501	H50	0.615700	0.345200	0.616100
C901	C90	0.706900	0.504700	0.653900
H511	H51	0.755000	0.537000	0.646600
C911	C91	0.563300	0.411200	0.675000
H521	H52	0.513700	0.379900	0.680900
O281	O28	0.472600	0.211600	0.915900
C921	C92	0.398100	0.440100	0.816300
H531	H53	0.357900	0.480100	0.809600
C931	C93	0.381400	0.386800	0.857200
H541	H54	0.330100	0.391400	0.878100
C941	C94	0.756100	0.416800	0.577500
C951	C95	0.440600	0.327200	0.867000
C961	C96	0.531800	0.372400	0.794800
H551	H55	0.582600	0.366000	0.773700
C971	C97	0.513800	0.320600	0.835200
H561	H56	0.553000	0.279600	0.841000
C981	C98	0.419900	0.270600	0.912300
O291	O29	0.642900	0.716700	0.941740
O301	O30	0.190800	0.532700	0.561310
O311	O31	0.253500	0.648500	0.558760
C991	C99	0.424400	0.523100	0.706630
C1001	C100	0.523900	0.566800	0.785040
C1011	C101	0.306800	0.562200	0.622900
C1021	C102	0.351300	0.477300	0.695600
H571	H57	0.340800	0.433400	0.716500
C1031	C103	0.376500	0.608700	0.635000
H581	H58	0.384300	0.654800	0.616100
C1041	C104	0.293100	0.495300	0.653900
H591	H59	0.245000	0.463000	0.646600
C1051	C105	0.436700	0.588800	0.675000
H601	H60	0.486300	0.620100	0.680900
O321	O32	0.527400	0.788400	0.915900
C1061	C106	0.601900	0.559900	0.816300
H611	H61	0.642100	0.519900	0.809600
C1071	C107	0.618600	0.613200	0.857200
H621	H62	0.669900	0.608600	0.878100
C1081	C108	0.243900	0.583200	0.577500
C1091	C109	0.559400	0.672800	0.867000
C1101	C110	0.468200	0.627600	0.794800
H631	H63	0.417400	0.634000	0.773700
C1111	C111	0.486200	0.679400	0.835200
H641	H64	0.447000	0.720400	0.841000
C1121	C112	0.580100	0.729400	0.912300
Ni11	Ni1	0.305440	0.210860	0.000000
Ni21	Ni2	0.395070	0.024220	0.000000
O331	O33	0.420700	0.140600	0.000000
Ni31	Ni3	0.694560	0.789140	0.000000
Ni41	Ni4	0.604930	0.975780	0.000000
O341	O34	0.579300	0.859400	0.000000
Ni51	Ni5	0.194560	0.710860	0.500000
Ni61	Ni6	0.104930	0.524220	0.500000
O351	O35	0.079300	0.640600	0.500000
Ni71	Ni7	0.805440	0.289140	0.500000
Ni81	Ni8	0.895070	0.475780	0.500000
O361	O36	0.920700	0.359400	0.500000
C1131	C113	0.000000	0.000000	0.245900
C1141	C114	0.500000	0.500000	0.254100
C1151	C115	0.000000	0.000000	0.754100
C1161	C116	0.500000	0.500000	0.745900
O371	O37	0.500000	0.000000	0.056200
O381	O38	0.000000	0.500000	0.443800
O391	O39	0.500000	0.000000	0.943800
O401	O40	0.000000	0.500000	0.556200
