data_XIVMEW_clean_PM
_symmetry_space_group_name_H-M	'P1'
_cell_length_a	10.371600
_cell_length_b	10.371600
_cell_length_c	19.139400
_cell_angle_alpha	90.000000
_cell_angle_beta	90.000000
_cell_angle_gamma	120.000000
_symmetry_Int_Tables_number 1

loop_
_symmetry_equiv_pos_as_xyz
'x,y,z'

loop_
_atom_site_label
_atom_site_type_symbol
_atom_site_fract_x
_atom_site_fract_y
_atom_site_fract_z
O11	O1	0.652600	0.552600	0.825500
C11	C1	0.394200	0.379200	0.966100
N11	N1	0.261000	0.283000	0.927600
O21	O2	0.447400	0.100000	0.825500
C21	C2	0.620800	0.015000	0.966100
N21	N2	0.717000	0.978000	0.927600
O31	O3	0.900000	0.347400	0.825500
C31	C3	0.985000	0.605800	0.966100
N31	N3	0.022000	0.739000	0.927600
O41	O4	0.347400	0.447400	0.325500
C41	C4	0.605800	0.620800	0.466100
N41	N4	0.739000	0.717000	0.427600
O51	O5	0.552600	0.900000	0.325500
C51	C5	0.379200	0.985000	0.466100
N51	N5	0.283000	0.022000	0.427600
O61	O6	0.100000	0.652600	0.325500
C61	C6	0.015000	0.394200	0.466100
N61	N6	0.978000	0.261000	0.427600
O71	O7	0.552600	0.652600	0.174500
C71	C7	0.379200	0.394200	0.033900
N71	N7	0.283000	0.261000	0.072400
O81	O8	0.100000	0.447400	0.174500
C81	C8	0.015000	0.620800	0.033900
N81	N8	0.978000	0.717000	0.072400
O91	O9	0.347400	0.900000	0.174500
C91	C9	0.605800	0.985000	0.033900
N91	N9	0.739000	0.022000	0.072400
O101	O10	0.447400	0.347400	0.674500
C101	C10	0.620800	0.605800	0.533900
N101	N10	0.717000	0.739000	0.572400
O111	O11	0.900000	0.552600	0.674500
C111	C11	0.985000	0.379200	0.533900
N111	N11	0.022000	0.283000	0.572400
O121	O12	0.652600	0.100000	0.674500
C121	C12	0.394200	0.015000	0.533900
N121	N12	0.261000	0.978000	0.572400
O131	O13	0.347400	0.447400	0.174500
C131	C13	0.605800	0.620800	0.033900
N131	N13	0.739000	0.717000	0.072400
O141	O14	0.552600	0.900000	0.174500
C141	C14	0.379200	0.985000	0.033900
N141	N14	0.283000	0.022000	0.072400
O151	O15	0.100000	0.652600	0.174500
C151	C15	0.015000	0.394200	0.033900
N151	N15	0.978000	0.261000	0.072400
O161	O16	0.652600	0.552600	0.674500
C161	C16	0.394200	0.379200	0.533900
N161	N16	0.261000	0.283000	0.572400
O171	O17	0.447400	0.100000	0.674500
C171	C17	0.620800	0.015000	0.533900
N171	N17	0.717000	0.978000	0.572400
O181	O18	0.900000	0.347400	0.674500
C181	C18	0.985000	0.605800	0.533900
N181	N18	0.022000	0.739000	0.572400
O191	O19	0.447400	0.347400	0.825500
C191	C19	0.620800	0.605800	0.966100
N191	N19	0.717000	0.739000	0.927600
O201	O20	0.900000	0.552600	0.825500
C201	C20	0.985000	0.379200	0.966100
N201	N20	0.022000	0.283000	0.927600
O211	O21	0.652600	0.100000	0.825500
C211	C21	0.394200	0.015000	0.966100
N211	N21	0.261000	0.978000	0.927600
O221	O22	0.552600	0.652600	0.325500
C221	C22	0.379200	0.394200	0.466100
N221	N22	0.283000	0.261000	0.427600
O231	O23	0.100000	0.447400	0.325500
C231	C23	0.015000	0.620800	0.466100
N231	N23	0.978000	0.717000	0.427600
O241	O24	0.347400	0.900000	0.325500
C241	C24	0.605800	0.985000	0.466100
N241	N24	0.739000	0.022000	0.427600
Fe11	Fe1	0.767200	0.534400	0.750000
Fe21	Fe2	0.465600	0.232800	0.750000
Fe31	Fe3	0.767200	0.232800	0.750000
Fe41	Fe4	0.232800	0.465600	0.250000
Fe51	Fe5	0.534400	0.767200	0.250000
Fe61	Fe6	0.232800	0.767200	0.250000
O251	O25	0.666670	0.333330	0.750000
O261	O26	0.333330	0.666670	0.250000
C251	C25	0.539900	0.460100	0.855500
C261	C26	0.512200	0.487800	0.927800
C271	C27	0.539900	0.079800	0.855500
C281	C28	0.512200	0.024400	0.927800
C291	C29	0.920200	0.460100	0.855500
C301	C30	0.975600	0.487800	0.927800
C311	C31	0.460100	0.539900	0.355500
C321	C32	0.487800	0.512200	0.427800
C331	C33	0.460100	0.920200	0.355500
C341	C34	0.487800	0.975600	0.427800
C351	C35	0.079800	0.539900	0.355500
C361	C36	0.024400	0.512200	0.427800
C371	C37	0.460100	0.539900	0.144500
C381	C38	0.487800	0.512200	0.072200
C391	C39	0.079800	0.539900	0.144500
C401	C40	0.024400	0.512200	0.072200
C411	C41	0.460100	0.920200	0.144500
C421	C42	0.487800	0.975600	0.072200
C431	C43	0.539900	0.460100	0.644500
C441	C44	0.512200	0.487800	0.572200
C451	C45	0.920200	0.460100	0.644500
C461	C46	0.975600	0.487800	0.572200
C471	C47	0.539900	0.079800	0.644500
C481	C48	0.512200	0.024400	0.572200
