data_XIWKUJ_clean_PM
_symmetry_space_group_name_H-M	'P1'
_cell_length_a	13.724900
_cell_length_b	13.724900
_cell_length_c	15.331600
_cell_angle_alpha	90.000000
_cell_angle_beta	90.000000
_cell_angle_gamma	120.000000
_symmetry_Int_Tables_number 1

loop_
_symmetry_equiv_pos_as_xyz
'x,y,z'

loop_
_atom_site_label
_atom_site_type_symbol
_atom_site_fract_x
_atom_site_fract_y
_atom_site_fract_z
Zn11	Zn1	0.241400	0.213900	0.093200
P11	P1	0.020000	0.225500	0.105300
O11	O1	0.135400	0.254100	0.139000
O21	O2	0.030800	0.296200	0.025200
O31	O3	0.956800	0.244400	0.176700
O41	O4	0.953300	0.099900	0.078600
Zn21	Zn2	0.908070	0.547230	0.426530
P21	P2	0.686670	0.558830	0.438630
O51	O5	0.802070	0.587430	0.472330
O61	O6	0.697470	0.629530	0.358530
O71	O7	0.623470	0.577730	0.510030
O81	O8	0.619970	0.433230	0.411930
Zn31	Zn3	0.574730	0.880570	0.759870
P31	P3	0.353330	0.892170	0.771970
O91	O9	0.468730	0.920770	0.805670
O101	O10	0.364130	0.962870	0.691870
O111	O11	0.290130	0.911070	0.843370
O121	O12	0.286630	0.766570	0.745270
Zn41	Zn4	0.786100	0.027500	0.093200
P41	P4	0.774500	0.794500	0.105300
O131	O13	0.745900	0.881300	0.139000
O141	O14	0.703800	0.734600	0.025200
O151	O15	0.755600	0.712400	0.176700
O161	O16	0.900100	0.853400	0.078600
Zn51	Zn5	0.452770	0.360830	0.426530
P51	P5	0.441170	0.127830	0.438630
O171	O17	0.412570	0.214630	0.472330
O181	O18	0.370470	0.067930	0.358530
O191	O19	0.422270	0.045730	0.510030
O201	O20	0.566770	0.186730	0.411930
Zn61	Zn6	0.119430	0.694170	0.759870
P61	P6	0.107830	0.461170	0.771970
O211	O21	0.079230	0.547970	0.805670
O221	O22	0.037130	0.401270	0.691870
O231	O23	0.088930	0.379070	0.843370
O241	O24	0.233430	0.520070	0.745270
Zn71	Zn7	0.972500	0.758600	0.093200
P71	P7	0.205500	0.980000	0.105300
O251	O25	0.118700	0.864600	0.139000
O261	O26	0.265400	0.969200	0.025200
O271	O27	0.287600	0.043200	0.176700
O281	O28	0.146600	0.046700	0.078600
Zn81	Zn8	0.639170	0.091930	0.426530
P81	P8	0.872170	0.313330	0.438630
O291	O29	0.785370	0.197930	0.472330
O301	O30	0.932070	0.302530	0.358530
O311	O31	0.954270	0.376530	0.510030
O321	O32	0.813270	0.380030	0.411930
Zn91	Zn9	0.305830	0.425270	0.759870
P91	P9	0.538830	0.646670	0.771970
O331	O33	0.452030	0.531270	0.805670
O341	O34	0.598730	0.635870	0.691870
O351	O35	0.620930	0.709870	0.843370
O361	O36	0.479930	0.713370	0.745270
Zn101	Zn10	0.758600	0.786100	0.906800
P101	P10	0.980000	0.774500	0.894700
O371	O37	0.864600	0.745900	0.861000
O381	O38	0.969200	0.703800	0.974800
O391	O39	0.043200	0.755600	0.823300
O401	O40	0.046700	0.900100	0.921400
Zn111	Zn11	0.425270	0.119430	0.240130
P111	P11	0.646670	0.107830	0.228030
O411	O41	0.531270	0.079230	0.194330
O421	O42	0.635870	0.037130	0.308130
O431	O43	0.709870	0.088930	0.156630
O441	O44	0.713370	0.233430	0.254730
Zn121	Zn12	0.091930	0.452770	0.573470
P121	P12	0.313330	0.441170	0.561370
O451	O45	0.197930	0.412570	0.527670
O461	O46	0.302530	0.370470	0.641470
O471	O47	0.376530	0.422270	0.489970
O481	O48	0.380030	0.566770	0.588070
Zn131	Zn13	0.213900	0.972500	0.906800
P131	P13	0.225500	0.205500	0.894700
O491	O49	0.254100	0.118700	0.861000
O501	O50	0.296200	0.265400	0.974800
O511	O51	0.244400	0.287600	0.823300
O521	O52	0.099900	0.146600	0.921400
Zn141	Zn14	0.880570	0.305830	0.240130
P141	P14	0.892170	0.538830	0.228030
O531	O53	0.920770	0.452030	0.194330
O541	O54	0.962870	0.598730	0.308130
O551	O55	0.911070	0.620930	0.156630
O561	O56	0.766570	0.479930	0.254730
Zn151	Zn15	0.547230	0.639170	0.573470
P151	P15	0.558830	0.872170	0.561370
O571	O57	0.587430	0.785370	0.527670
O581	O58	0.629530	0.932070	0.641470
O591	O59	0.577730	0.954270	0.489970
O601	O60	0.433230	0.813270	0.588070
Zn161	Zn16	0.027500	0.241400	0.906800
P161	P16	0.794500	0.020000	0.894700
O611	O61	0.881300	0.135400	0.861000
O621	O62	0.734600	0.030800	0.974800
O631	O63	0.712400	0.956800	0.823300
O641	O64	0.853400	0.953300	0.921400
Zn171	Zn17	0.694170	0.574730	0.240130
P171	P17	0.461170	0.353330	0.228030
O651	O65	0.547970	0.468730	0.194330
O661	O66	0.401270	0.364130	0.308130
O671	O67	0.379070	0.290130	0.156630
O681	O68	0.520070	0.286630	0.254730
Zn181	Zn18	0.360830	0.908070	0.573470
P181	P18	0.127830	0.686670	0.561370
O691	O69	0.214630	0.802070	0.527670
O701	O70	0.067930	0.697470	0.641470
O711	O71	0.045730	0.623470	0.489970
O721	O72	0.186730	0.619970	0.588070
Zn191	Zn19	0.000000	0.000000	0.000000
Zn201	Zn20	0.666670	0.333330	0.333330
Zn211	Zn21	0.333330	0.666670	0.666670
