data_XIWLAQ_clean_PM
_symmetry_space_group_name_H-M	'P1'
_cell_length_a	5.269700
_cell_length_b	12.140000
_cell_length_c	13.916100
_cell_angle_alpha	115.439000
_cell_angle_beta	98.392000
_cell_angle_gamma	91.157000
_symmetry_Int_Tables_number 1

loop_
_symmetry_equiv_pos_as_xyz
'x,y,z'

loop_
_atom_site_label
_atom_site_type_symbol
_atom_site_fract_x
_atom_site_fract_y
_atom_site_fract_z
Zn11	Zn1	0.509700	0.397600	0.167300
Zn21	Zn2	0.047600	0.303500	0.954600
Zn31	Zn3	0.441300	0.114100	0.153500
Zn41	Zn4	0.226900	0.491800	0.381900
P11	P1	0.031900	0.537100	0.177400
P21	P2	0.699600	0.337000	0.362200
P31	P3	0.536500	0.168600	0.959700
O11	O1	0.150200	0.415100	0.111000
O21	O2	0.104600	0.634600	0.142700
O31	O3	0.741100	0.512700	0.159100
O41	O4	0.159100	0.582400	0.295500
O51	O5	0.521000	0.407800	0.312700
O61	O6	0.621300	0.200700	0.300600
O71	O7	0.662500	0.380100	0.478400
O81	O8	0.976400	0.363100	0.352800
O91	O9	0.536600	0.220700	0.084200
O101	O10	0.409300	0.038100	0.907800
O111	O11	0.814600	0.170100	0.941100
O121	O12	0.379800	0.249200	0.919200
Zn51	Zn5	0.490300	0.602400	0.832700
Zn61	Zn6	0.952400	0.696500	0.045400
Zn71	Zn7	0.558700	0.885900	0.846500
Zn81	Zn8	0.773100	0.508200	0.618100
P41	P4	0.968100	0.462900	0.822600
P51	P5	0.300400	0.663000	0.637800
P61	P6	0.463500	0.831400	0.040300
O131	O13	0.849800	0.584900	0.889000
O141	O14	0.895400	0.365400	0.857300
O151	O15	0.258900	0.487300	0.840900
O161	O16	0.840900	0.417600	0.704500
O171	O17	0.479000	0.592200	0.687300
O181	O18	0.378700	0.799300	0.699400
O191	O19	0.337500	0.619900	0.521600
O201	O20	0.023600	0.636900	0.647200
O211	O21	0.463400	0.779300	0.915800
O221	O22	0.590700	0.961900	0.092200
O231	O23	0.185400	0.829900	0.058900
O241	O24	0.620200	0.750800	0.080800
