data_XIWYEH_clean_PM
_symmetry_space_group_name_H-M	'P1'
_cell_length_a	10.745500
_cell_length_b	6.346900
_cell_length_c	20.480000
_cell_angle_alpha	90.000000
_cell_angle_beta	104.286000
_cell_angle_gamma	90.000000
_symmetry_Int_Tables_number 1

loop_
_symmetry_equiv_pos_as_xyz
'x,y,z'

loop_
_atom_site_label
_atom_site_type_symbol
_atom_site_fract_x
_atom_site_fract_y
_atom_site_fract_z
Ti11	Ti1	0.890600	0.035100	0.200300
Ti21	Ti2	0.096700	0.543000	0.393500
P11	P1	0.172300	0.171600	0.177700
P21	P2	0.883800	0.537700	0.243000
P31	P3	0.025200	0.048800	0.366500
P41	P4	0.679800	0.081600	0.053200
O11	O1	0.888400	0.729600	0.199000
O21	O2	0.802200	0.028900	0.105600
O31	O3	0.887700	0.342900	0.200500
O41	O4	0.997100	0.031000	0.291500
O51	O5	0.765300	0.538000	0.270000
O61	O6	0.049700	0.046000	0.171000
O71	O7	0.002500	0.540300	0.302800
O81	O8	0.086500	0.848300	0.401200
O91	O9	0.687800	0.968100	0.988900
O101	O10	0.113800	0.235600	0.391900
O111	O11	0.244300	0.069900	0.129900
O121	O12	0.565600	0.013200	0.078200
O131	O13	0.253400	0.175700	0.250900
O141	O14	0.145800	0.401300	0.157200
O151	O15	0.897600	0.084500	0.387000
O161	O16	0.675500	0.318400	0.036900
H11	H1	0.318800	0.244700	0.253100
H21	H2	0.863800	0.193300	0.369500
H31	H3	0.649700	0.383400	0.065600
Ti31	Ti3	0.609400	0.535100	0.299700
Ti41	Ti4	0.403300	0.043000	0.106500
P51	P5	0.327700	0.671600	0.322300
P61	P6	0.616200	0.037700	0.257000
P71	P7	0.474800	0.548800	0.133500
P81	P8	0.820200	0.581600	0.446800
O171	O17	0.611600	0.229600	0.301000
O181	O18	0.697800	0.528900	0.394400
O191	O19	0.612300	0.842900	0.299500
O201	O20	0.502900	0.531000	0.208500
O211	O21	0.734700	0.038000	0.230000
O221	O22	0.450300	0.546000	0.329000
O231	O23	0.497500	0.040300	0.197200
O241	O24	0.413500	0.348300	0.098800
O251	O25	0.812200	0.468100	0.511100
O261	O26	0.386200	0.735600	0.108100
O271	O27	0.255700	0.569900	0.370100
O281	O28	0.934400	0.513200	0.421800
O291	O29	0.246600	0.675700	0.249100
O301	O30	0.354200	0.901300	0.342800
O311	O31	0.602400	0.584500	0.113000
O321	O32	0.824500	0.818400	0.463100
H41	H4	0.181200	0.744700	0.246900
H51	H5	0.636200	0.693300	0.130500
H61	H6	0.850300	0.883400	0.434400
Ti51	Ti5	0.109400	0.964900	0.799700
Ti61	Ti6	0.903300	0.457000	0.606500
P91	P9	0.827700	0.828400	0.822300
P101	P10	0.116200	0.462300	0.757000
P111	P11	0.974800	0.951200	0.633500
P121	P12	0.320200	0.918400	0.946800
O331	O33	0.111600	0.270400	0.801000
O341	O34	0.197800	0.971100	0.894400
O351	O35	0.112300	0.657100	0.799500
O361	O36	0.002900	0.969000	0.708500
O371	O37	0.234700	0.462000	0.730000
O381	O38	0.950300	0.954000	0.829000
O391	O39	0.997500	0.459700	0.697200
O401	O40	0.913500	0.151700	0.598800
O411	O41	0.312200	0.031900	0.011100
O421	O42	0.886200	0.764400	0.608100
O431	O43	0.755700	0.930100	0.870100
O441	O44	0.434400	0.986800	0.921800
O451	O45	0.746600	0.824300	0.749100
O461	O46	0.854200	0.598700	0.842800
O471	O47	0.102400	0.915500	0.613000
O481	O48	0.324500	0.681600	0.963100
H71	H7	0.681200	0.755300	0.746900
H81	H8	0.136200	0.806700	0.630500
H91	H9	0.350300	0.616600	0.934400
Ti71	Ti7	0.390600	0.464900	0.700300
Ti81	Ti8	0.596700	0.957000	0.893500
P131	P13	0.672300	0.328400	0.677700
P141	P14	0.383800	0.962300	0.743000
P151	P15	0.525200	0.451200	0.866500
P161	P16	0.179800	0.418400	0.553200
O491	O49	0.388400	0.770400	0.699000
O501	O50	0.302200	0.471100	0.605600
O511	O51	0.387700	0.157100	0.700500
O521	O52	0.497100	0.469000	0.791500
O531	O53	0.265300	0.962000	0.770000
O541	O54	0.549700	0.454000	0.671000
O551	O55	0.502500	0.959700	0.802800
O561	O56	0.586500	0.651700	0.901200
O571	O57	0.187800	0.531900	0.488900
O581	O58	0.613800	0.264400	0.891900
O591	O59	0.744300	0.430100	0.629900
O601	O60	0.065600	0.486800	0.578200
O611	O61	0.753400	0.324300	0.750900
O621	O62	0.645800	0.098700	0.657200
O631	O63	0.397600	0.415500	0.887000
O641	O64	0.175500	0.181600	0.536900
H101	H10	0.818800	0.255300	0.753100
H111	H11	0.363800	0.306700	0.869500
H121	H12	0.149700	0.116600	0.565600
