data_XOBXIW_clean_PM
_symmetry_space_group_name_H-M	'P1'
_cell_length_a	9.776300
_cell_length_b	11.148700
_cell_length_c	14.364300
_cell_angle_alpha	91.388300
_cell_angle_beta	90.000000
_cell_angle_gamma	90.000000
_symmetry_Int_Tables_number 1

loop_
_symmetry_equiv_pos_as_xyz
'x,y,z'

loop_
_atom_site_label
_atom_site_type_symbol
_atom_site_fract_x
_atom_site_fract_y
_atom_site_fract_z
Ni11	Ni1	0.923610	0.244420	0.364910
Ni21	Ni2	0.617310	0.240960	0.307740
Ni31	Ni3	0.423610	0.255580	0.135090
Ni41	Ni4	0.117310	0.259040	0.192260
Ni51	Ni5	0.076390	0.755580	0.635090
Ni61	Ni6	0.382690	0.759040	0.692260
Ni71	Ni7	0.576390	0.744420	0.864910
Ni81	Ni8	0.882690	0.740960	0.807740
Ni91	Ni9	0.000000	0.500000	0.500000
Ni101	Ni10	0.500000	0.000000	0.000000
Ni111	Ni11	0.000000	0.000000	0.500000
Ni121	Ni12	0.500000	0.500000	0.000000
H11	H1	0.707100	0.009900	0.486000
H21	H2	0.622100	0.444000	0.451800
H31	H3	0.194100	0.017300	0.270800
H41	H4	0.764400	0.145500	0.129000
H51	H5	0.156800	0.303200	0.571500
H61	H6	0.053200	0.522500	0.238600
H71	H7	0.207100	0.490100	0.014000
H81	H8	0.122100	0.056000	0.048200
H91	H9	0.694100	0.482700	0.229200
H101	H10	0.264400	0.354500	0.371000
H111	H11	0.656800	0.196800	0.928500
H121	H12	0.553200	0.977500	0.261400
H131	H13	0.292900	0.990100	0.514000
H141	H14	0.377900	0.556000	0.548200
H151	H15	0.805900	0.982700	0.729200
H161	H16	0.235600	0.854500	0.871000
H171	H17	0.843200	0.696800	0.428500
H181	H18	0.946800	0.477500	0.761400
H191	H19	0.792900	0.509900	0.986000
H201	H20	0.877900	0.944000	0.951800
H211	H21	0.305900	0.517300	0.770800
H221	H22	0.735600	0.645500	0.629000
H231	H23	0.343200	0.803200	0.071500
H241	H24	0.446800	0.022500	0.738600
C11	C1	0.725000	0.071700	0.445400
C21	C2	0.714900	0.427000	0.446200
C31	C3	0.133000	0.045250	0.316050
C41	C4	0.834500	0.172810	0.167810
C51	C5	0.102100	0.257640	0.531240
C61	C6	0.025400	0.481550	0.290950
C71	C7	0.225000	0.428300	0.054600
C81	C8	0.214900	0.073000	0.053800
C91	C9	0.633000	0.454750	0.183950
C101	C10	0.334500	0.327190	0.332190
C111	C11	0.602100	0.242360	0.968760
C121	C12	0.525400	0.018450	0.209050
C131	C13	0.275000	0.928300	0.554600
C141	C14	0.285100	0.573000	0.553800
C151	C15	0.867000	0.954750	0.683950
C161	C16	0.165500	0.827190	0.832190
C171	C17	0.897900	0.742360	0.468760
C181	C18	0.974600	0.518450	0.709050
C191	C19	0.775000	0.571700	0.945400
C201	C20	0.785100	0.927000	0.946200
C211	C21	0.367000	0.545250	0.816050
C221	C22	0.665500	0.672810	0.667810
C231	C23	0.397900	0.757640	0.031240
C241	C24	0.474600	0.981550	0.790950
O11	O1	0.849600	0.102900	0.437490
O21	O2	0.625410	0.114390	0.405020
O31	O3	0.805240	0.190050	0.253370
O41	O4	0.748210	0.346350	0.386770
O51	O5	0.085940	0.149730	0.305620
O61	O6	0.010960	0.369300	0.281530
O71	O7	0.025070	0.315210	0.475930
O81	O8	0.947660	0.188950	0.131250
O91	O9	0.006300	0.542040	0.362240
O101	O10	0.793110	0.485320	0.497420
O111	O11	0.107200	0.976620	0.379000
O121	O12	0.110950	0.147900	0.536540
O131	O13	0.349600	0.397100	0.062510
O141	O14	0.125410	0.385610	0.094980
O151	O15	0.305240	0.309950	0.246630
O161	O16	0.248210	0.153650	0.113230
O171	O17	0.585940	0.350270	0.194380
O181	O18	0.510960	0.130700	0.218470
O191	O19	0.525070	0.184790	0.024070
O201	O20	0.447660	0.311050	0.368750
O211	O21	0.506300	0.957960	0.137760
O221	O22	0.293110	0.014680	0.002580
O231	O23	0.607200	0.523380	0.121000
O241	O24	0.610950	0.352100	0.963460
O251	O25	0.150400	0.897100	0.562510
O261	O26	0.374590	0.885610	0.594980
O271	O27	0.194760	0.809950	0.746630
O281	O28	0.251790	0.653650	0.613230
O291	O29	0.914060	0.850270	0.694380
O301	O30	0.989040	0.630700	0.718470
O311	O31	0.974930	0.684790	0.524070
O321	O32	0.052340	0.811050	0.868750
O331	O33	0.993700	0.457960	0.637760
O341	O34	0.206890	0.514680	0.502580
O351	O35	0.892800	0.023380	0.621000
O361	O36	0.889050	0.852100	0.463460
O371	O37	0.650400	0.602900	0.937490
O381	O38	0.874590	0.614390	0.905020
O391	O39	0.694760	0.690050	0.753370
O401	O40	0.751790	0.846350	0.886770
O411	O41	0.414060	0.649730	0.805620
O421	O42	0.489040	0.869300	0.781530
O431	O43	0.474930	0.815210	0.975930
O441	O44	0.552340	0.688950	0.631250
O451	O45	0.493700	0.042040	0.862240
O461	O46	0.706890	0.985320	0.997420
O471	O47	0.392800	0.476620	0.879000
O481	O48	0.389050	0.647900	0.036540
