data_XOCGUR_clean_PM
_symmetry_space_group_name_H-M	'P1'
_cell_length_a	6.991000
_cell_length_b	10.031000
_cell_length_c	16.238000
_cell_angle_alpha	90.000000
_cell_angle_beta	98.500000
_cell_angle_gamma	90.000000
_symmetry_Int_Tables_number 1

loop_
_symmetry_equiv_pos_as_xyz
'x,y,z'

loop_
_atom_site_label
_atom_site_type_symbol
_atom_site_fract_x
_atom_site_fract_y
_atom_site_fract_z
Co11	Co1	0.152960	0.636140	0.292600
O11	O1	0.221700	0.444900	0.252800
O21	O2	0.123100	0.233700	0.246900
O31	O3	0.981100	0.667400	0.179200
O41	O4	0.718900	0.597200	0.099100
O51	O5	0.021800	0.772100	0.362500
O61	O6	0.852400	0.784800	0.466300
N11	N1	0.899300	0.524200	0.315600
C11	C1	0.961800	0.384800	0.325100
C21	C2	0.113900	0.352300	0.269700
C31	C3	0.751900	0.540600	0.241500
C41	C4	0.824200	0.604100	0.167300
C51	C5	0.837000	0.580700	0.390900
C61	C6	0.908400	0.723500	0.407100
H11	H1	0.021000	0.370000	0.384000
H21	H2	0.854000	0.325000	0.316000
H31	H3	0.702000	0.458000	0.225000
H41	H4	0.645000	0.588000	0.255000
H51	H5	0.703000	0.581000	0.391000
H61	H6	0.886000	0.527000	0.439000
Co21	Co2	0.347040	0.136140	0.207400
O71	O7	0.278300	0.944900	0.247200
O81	O8	0.376900	0.733700	0.253100
O91	O9	0.518900	0.167400	0.320800
O101	O10	0.781100	0.097200	0.400900
O111	O11	0.478200	0.272100	0.137500
O121	O12	0.647600	0.284800	0.033700
N21	N2	0.600700	0.024200	0.184400
C71	C7	0.538200	0.884800	0.174900
C81	C8	0.386100	0.852300	0.230300
C91	C9	0.748100	0.040600	0.258500
C101	C10	0.675800	0.104100	0.332700
C111	C11	0.663000	0.080700	0.109100
C121	C12	0.591600	0.223500	0.092900
H71	H7	0.479000	0.870000	0.116000
H81	H8	0.646000	0.825000	0.184000
H91	H9	0.798000	0.958000	0.275000
H101	H10	0.855000	0.088000	0.245000
H111	H11	0.797000	0.081000	0.109000
H121	H12	0.614000	0.027000	0.061000
Co31	Co3	0.847040	0.363860	0.707400
O131	O13	0.778300	0.555100	0.747200
O141	O14	0.876900	0.766300	0.753100
O151	O15	0.018900	0.332600	0.820800
O161	O16	0.281100	0.402800	0.900900
O171	O17	0.978200	0.227900	0.637500
O181	O18	0.147600	0.215200	0.533700
N31	N3	0.100700	0.475800	0.684400
C131	C13	0.038200	0.615200	0.674900
C141	C14	0.886100	0.647700	0.730300
C151	C15	0.248100	0.459400	0.758500
C161	C16	0.175800	0.395900	0.832700
C171	C17	0.163000	0.419300	0.609100
C181	C18	0.091600	0.276500	0.592900
H131	H13	0.979000	0.630000	0.616000
H141	H14	0.146000	0.675000	0.684000
H151	H15	0.298000	0.542000	0.775000
H161	H16	0.355000	0.412000	0.745000
H171	H17	0.297000	0.419000	0.609000
H181	H18	0.114000	0.473000	0.561000
Co41	Co4	0.652960	0.863860	0.792600
O191	O19	0.721700	0.055100	0.752800
O201	O20	0.623100	0.266300	0.746900
O211	O21	0.481100	0.832600	0.679200
O221	O22	0.218900	0.902800	0.599100
O231	O23	0.521800	0.727900	0.862500
O241	O24	0.352400	0.715200	0.966300
N41	N4	0.399300	0.975800	0.815600
C191	C19	0.461800	0.115200	0.825100
C201	C20	0.613900	0.147700	0.769700
C211	C21	0.251900	0.959400	0.741500
C221	C22	0.324200	0.895900	0.667300
C231	C23	0.337000	0.919300	0.890900
C241	C24	0.408400	0.776500	0.907100
H191	H19	0.521000	0.130000	0.884000
H201	H20	0.354000	0.175000	0.816000
H211	H21	0.202000	0.042000	0.725000
H221	H22	0.145000	0.912000	0.755000
H231	H23	0.203000	0.919000	0.891000
H241	H24	0.386000	0.973000	0.939000
Ca11	Ca1	0.000000	0.000000	0.500000
Ca21	Ca2	0.500000	0.500000	0.000000
