data_XOCWIX_clean_PM
_symmetry_space_group_name_H-M	'P1'
_cell_length_a	10.562600
_cell_length_b	11.455900
_cell_length_c	13.483900
_cell_angle_alpha	69.112000
_cell_angle_beta	78.889000
_cell_angle_gamma	63.614000
_symmetry_Int_Tables_number 1

loop_
_symmetry_equiv_pos_as_xyz
'x,y,z'

loop_
_atom_site_label
_atom_site_type_symbol
_atom_site_fract_x
_atom_site_fract_y
_atom_site_fract_z
U11	U1	0.623160	0.713410	0.836670
Ho11	Ho1	0.599420	0.231480	0.750500
C11	C1	0.997700	0.345700	0.850000
C21	C2	0.113000	0.316500	0.907200
H11	H1	0.098700	0.363200	0.955300
C31	C3	0.248300	0.218700	0.892700
C41	C4	0.266900	0.144000	0.822600
C51	C5	0.147000	0.166200	0.774600
H21	H2	0.157100	0.111500	0.734100
C61	C6	0.014600	0.267400	0.786200
C71	C7	0.628100	0.999600	0.450100
H31	H3	0.713800	0.999800	0.416900
C81	C8	0.618000	0.874300	0.505700
C91	C9	0.491000	0.873700	0.556100
C101	C10	0.861800	0.465600	0.854100
C111	C11	0.363400	0.195700	0.955400
C121	C12	0.407400	0.042400	0.797800
C131	C13	0.894300	0.292100	0.724900
C141	C14	0.471700	0.744200	0.622000
C151	C15	0.744300	0.747300	0.507900
O11	O1	0.850900	0.538700	0.911900
O21	O2	0.762200	0.495800	0.801000
O31	O3	0.814500	0.235400	0.770900
O41	O4	0.887200	0.361700	0.628000
O51	O5	0.416800	0.922100	0.817500
O61	O6	0.502300	0.080100	0.754000
O71	O7	0.481600	0.180600	0.915100
O81	O8	0.327000	0.195200	0.051900
O91	O9	0.502700	0.694000	0.718400
O101	O10	0.417000	0.697300	0.580100
O111	O11	0.737000	0.634600	0.536800
O121	O12	0.865900	0.751000	0.477600
U21	U2	0.376840	0.286590	0.163330
Ho21	Ho2	0.400580	0.768520	0.249500
C161	C16	0.002300	0.654300	0.150000
C171	C17	0.887000	0.683500	0.092800
H41	H4	0.901300	0.636800	0.044700
C181	C18	0.751700	0.781300	0.107300
C191	C19	0.733100	0.856000	0.177400
C201	C20	0.853000	0.833800	0.225400
H51	H5	0.842900	0.888500	0.265900
C211	C21	0.985400	0.732600	0.213800
C221	C22	0.371900	0.000400	0.549900
H61	H6	0.286200	0.000200	0.583100
C231	C23	0.382000	0.125700	0.494300
C241	C24	0.509000	0.126300	0.443900
C251	C25	0.138200	0.534400	0.145900
C261	C26	0.636600	0.804300	0.044600
C271	C27	0.592600	0.957600	0.202200
C281	C28	0.105700	0.707900	0.275100
C291	C29	0.528300	0.255800	0.378000
C301	C30	0.255700	0.252700	0.492100
O131	O13	0.149100	0.461300	0.088100
O141	O14	0.237800	0.504200	0.199000
O151	O15	0.185500	0.764600	0.229100
O161	O16	0.112800	0.638300	0.372000
O171	O17	0.583200	0.077900	0.182500
O181	O18	0.497700	0.919900	0.246000
O191	O19	0.518400	0.819400	0.084900
O201	O20	0.673000	0.804800	0.948100
O211	O21	0.497300	0.306000	0.281600
O221	O22	0.583000	0.302700	0.419900
O231	O23	0.263000	0.365400	0.463200
O241	O24	0.134100	0.249000	0.522400
U31	U3	0.000000	0.500000	0.500000
