data_XOCWUJ_clean_PM
_symmetry_space_group_name_H-M	'P1'
_cell_length_a	10.510500
_cell_length_b	11.439000
_cell_length_c	13.444300
_cell_angle_alpha	68.998000
_cell_angle_beta	78.805000
_cell_angle_gamma	63.732000
_symmetry_Int_Tables_number 1

loop_
_symmetry_equiv_pos_as_xyz
'x,y,z'

loop_
_atom_site_label
_atom_site_type_symbol
_atom_site_fract_x
_atom_site_fract_y
_atom_site_fract_z
U11	U1	0.622200	0.713350	0.836790
Tm11	Tm1	0.598210	0.231530	0.750420
C11	C1	0.994800	0.343500	0.853600
C21	C2	0.112000	0.314100	0.908000
H11	H1	0.098600	0.361600	0.955300
C31	C3	0.248500	0.216100	0.894100
C41	C4	0.265000	0.145500	0.823100
C51	C5	0.146200	0.166200	0.774600
H21	H2	0.157500	0.111400	0.733700
C61	C6	0.012800	0.266500	0.786200
C71	C7	0.625600	0.999000	0.452100
H31	H3	0.712200	0.998700	0.419500
C81	C8	0.616600	0.877400	0.504500
C91	C9	0.489900	0.874200	0.555400
C101	C10	0.864000	0.462600	0.857200
C111	C11	0.362800	0.195000	0.955500
C121	C12	0.407000	0.043000	0.795400
C131	C13	0.894500	0.291800	0.725900
C141	C14	0.468100	0.746100	0.620100
C151	C15	0.745300	0.747000	0.507700
O11	O1	0.851600	0.536100	0.914800
O21	O2	0.760500	0.496200	0.801200
O31	O3	0.812000	0.235100	0.771200
O41	O4	0.886100	0.362400	0.626800
O51	O5	0.417500	0.921000	0.818500
O61	O6	0.503000	0.080100	0.754200
O71	O7	0.484600	0.180000	0.915200
O81	O8	0.329000	0.194900	0.051700
O91	O9	0.501800	0.694000	0.717200
O101	O10	0.412200	0.699400	0.579600
O111	O11	0.735000	0.634800	0.534900
O121	O12	0.865700	0.750500	0.479700
U21	U2	0.377800	0.286650	0.163210
Tm21	Tm2	0.401790	0.768470	0.249580
C161	C16	0.005200	0.656500	0.146400
C171	C17	0.888000	0.685900	0.092000
H41	H4	0.901400	0.638400	0.044700
C181	C18	0.751500	0.783900	0.105900
C191	C19	0.735000	0.854500	0.176900
C201	C20	0.853800	0.833800	0.225400
H51	H5	0.842500	0.888600	0.266300
C211	C21	0.987200	0.733500	0.213800
C221	C22	0.374400	0.001000	0.547900
H61	H6	0.287800	0.001300	0.580500
C231	C23	0.383400	0.122600	0.495500
C241	C24	0.510100	0.125800	0.444600
C251	C25	0.136000	0.537400	0.142800
C261	C26	0.637200	0.805000	0.044500
C271	C27	0.593000	0.957000	0.204600
C281	C28	0.105500	0.708200	0.274100
C291	C29	0.531900	0.253900	0.379900
C301	C30	0.254700	0.253000	0.492300
O131	O13	0.148400	0.463900	0.085200
O141	O14	0.239500	0.503800	0.198800
O151	O15	0.188000	0.764900	0.228800
O161	O16	0.113900	0.637600	0.373200
O171	O17	0.582500	0.079000	0.181500
O181	O18	0.497000	0.919900	0.245800
O191	O19	0.515400	0.820000	0.084800
O201	O20	0.671000	0.805100	0.948300
O211	O21	0.498200	0.306000	0.282800
O221	O22	0.587800	0.300600	0.420400
O231	O23	0.265000	0.365200	0.465100
O241	O24	0.134300	0.249500	0.520300
U31	U3	0.000000	0.500000	0.500000
