data_XODPUD_clean_PM
_symmetry_space_group_name_H-M	'P1'
_cell_length_a	30.242000
_cell_length_b	30.242000
_cell_length_c	13.406000
_cell_angle_alpha	90.000000
_cell_angle_beta	90.000000
_cell_angle_gamma	120.000000
_symmetry_Int_Tables_number 1

loop_
_symmetry_equiv_pos_as_xyz
'x,y,z'

loop_
_atom_site_label
_atom_site_type_symbol
_atom_site_fract_x
_atom_site_fract_y
_atom_site_fract_z
O11	O1	0.254500	0.582400	0.393900
C11	C1	0.204000	0.480900	0.158800
H11	H1	0.171700	0.470000	0.131000
C21	C2	0.218600	0.515200	0.237100
H21	H2	0.197100	0.526800	0.261500
C31	C3	0.108700	0.352200	0.057400
C41	C4	0.026540	0.341600	0.982000
H31	H3	0.044800	0.369200	0.938300
O21	O2	0.136000	0.342800	0.114400
C51	C5	0.026680	0.284800	0.110800
H41	H4	0.045100	0.274800	0.152400
C61	C6	0.051800	0.326700	0.047300
O31	O3	0.417600	0.672100	0.393900
C71	C7	0.519100	0.723100	0.158800
H51	H5	0.530000	0.701700	0.131000
C81	C8	0.484800	0.703400	0.237100
H61	H6	0.473200	0.670300	0.261500
C91	C9	0.647800	0.756500	0.057400
C101	C10	0.658400	0.684940	0.982000
H71	H7	0.630800	0.675600	0.938300
O41	O4	0.657200	0.793200	0.114400
C111	C11	0.715200	0.741880	0.110800
H81	H8	0.725200	0.770300	0.152400
C121	C12	0.673300	0.725100	0.047300
O51	O5	0.327900	0.745500	0.393900
C131	C13	0.276900	0.796000	0.158800
H91	H9	0.298300	0.828300	0.131000
C141	C14	0.296600	0.781400	0.237100
H101	H10	0.329700	0.802900	0.261500
C151	C15	0.243500	0.891300	0.057400
C161	C16	0.315060	0.973460	0.982000
H111	H11	0.324400	0.955200	0.938300
O61	O6	0.206800	0.864000	0.114400
C171	C17	0.258120	0.973320	0.110800
H121	H12	0.229700	0.954900	0.152400
C181	C18	0.274900	0.948200	0.047300
O71	O7	0.745500	0.417600	0.393900
C191	C19	0.796000	0.519100	0.158800
H131	H13	0.828300	0.530000	0.131000
C201	C20	0.781400	0.484800	0.237100
H141	H14	0.802900	0.473200	0.261500
C211	C21	0.891300	0.647800	0.057400
C221	C22	0.973460	0.658400	0.982000
H151	H15	0.955200	0.630800	0.938300
O81	O8	0.864000	0.657200	0.114400
C231	C23	0.973320	0.715200	0.110800
H161	H16	0.954900	0.725200	0.152400
C241	C24	0.948200	0.673300	0.047300
O91	O9	0.582400	0.327900	0.393900
C251	C25	0.480900	0.276900	0.158800
H171	H17	0.470000	0.298300	0.131000
C261	C26	0.515200	0.296600	0.237100
H181	H18	0.526800	0.329700	0.261500
C271	C27	0.352200	0.243500	0.057400
C281	C28	0.341600	0.315060	0.982000
H191	H19	0.369200	0.324400	0.938300
O101	O10	0.342800	0.206800	0.114400
C291	C29	0.284800	0.258120	0.110800
H201	H20	0.274800	0.229700	0.152400
C301	C30	0.326700	0.274900	0.047300
O111	O11	0.672100	0.254500	0.393900
C311	C31	0.723100	0.204000	0.158800
H211	H21	0.701700	0.171700	0.131000
C321	C32	0.703400	0.218600	0.237100
H221	H22	0.670300	0.197100	0.261500
C331	C33	0.756500	0.108700	0.057400
C341	C34	0.684940	0.026540	0.982000
H231	H23	0.675600	0.044800	0.938300
O121	O12	0.793200	0.136000	0.114400
C351	C35	0.741880	0.026680	0.110800
H241	H24	0.770300	0.045100	0.152400
C361	C36	0.725100	0.051800	0.047300
O131	O13	0.582400	0.254500	0.606100
C371	C37	0.480900	0.204000	0.841200
H251	H25	0.470000	0.171700	0.869000
C381	C38	0.515200	0.218600	0.762900
H261	H26	0.526800	0.197100	0.738500
C391	C39	0.352200	0.108700	0.942600
C401	C40	0.341600	0.026540	0.018000
H271	H27	0.369200	0.044800	0.061700
O141	O14	0.342800	0.136000	0.885600
C411	C41	0.284800	0.026680	0.889200
H281	H28	0.274800	0.045100	0.847600
C421	C42	0.326700	0.051800	0.952700
O151	O15	0.672100	0.417600	0.606100
C431	C43	0.723100	0.519100	0.841200
H291	H29	0.701700	0.530000	0.869000
C441	C44	0.703400	0.484800	0.762900
H301	H30	0.670300	0.473200	0.738500
C451	C45	0.756500	0.647800	0.942600
C461	C46	0.684940	0.658400	0.018000
H311	H31	0.675600	0.630800	0.061700
O161	O16	0.793200	0.657200	0.885600
C471	C47	0.741880	0.715200	0.889200
H321	H32	0.770300	0.725200	0.847600
C481	C48	0.725100	0.673300	0.952700
O171	O17	0.745500	0.327900	0.606100
C491	C49	0.796000	0.276900	0.841200
H331	H33	0.828300	0.298300	0.869000
C501	C50	0.781400	0.296600	0.762900
H341	H34	0.802900	0.329700	0.738500
C511	C51	0.891300	0.243500	0.942600
C521	C52	0.973460	0.315060	0.018000
H351	H35	0.955200	0.324400	0.061700
O181	O18	0.864000	0.206800	0.885600
C531	C53	0.973320	0.258120	0.889200
H361	H36	0.954900	0.229700	0.847600
C541	C54	0.948200	0.274900	0.952700
O191	O19	0.417600	0.745500	0.606100
C551	C55	0.519100	0.796000	0.841200
H371	H37	0.530000	0.828300	0.869000
C561	C56	0.484800	0.781400	0.762900
H381	H38	0.473200	0.802900	0.738500
C571	C57	0.647800	0.891300	0.942600
C581	C58	0.658400	0.973460	0.018000
H391	H39	0.630800	0.955200	0.061700
O201	O20	0.657200	0.864000	0.885600
C591	C59	0.715200	0.973320	0.889200
H401	H40	0.725200	0.954900	0.847600
C601	C60	0.673300	0.948200	0.952700
O211	O21	0.327900	0.582400	0.606100
C611	C61	0.276900	0.480900	0.841200
H411	H41	0.298300	0.470000	0.869000
C621	C62	0.296600	0.515200	0.762900
H421	H42	0.329700	0.526800	0.738500
C631	C63	0.243500	0.352200	0.942600
C641	C64	0.315060	0.341600	0.018000
H431	H43	0.324400	0.369200	0.061700
O221	O22	0.206800	0.342800	0.885600
C651	C65	0.258120	0.284800	0.889200
H441	H44	0.229700	0.274800	0.847600
C661	C66	0.274900	0.326700	0.952700
O231	O23	0.254500	0.672100	0.606100
C671	C67	0.204000	0.723100	0.841200
H451	H45	0.171700	0.701700	0.869000
C681	C68	0.218600	0.703400	0.762900
H461	H46	0.197100	0.670300	0.738500
C691	C69	0.108700	0.756500	0.942600
C701	C70	0.026540	0.684940	0.018000
H471	H47	0.044800	0.675600	0.061700
O241	O24	0.136000	0.793200	0.885600
C711	C71	0.026680	0.741880	0.889200
H481	H48	0.045100	0.770300	0.847600
C721	C72	0.051800	0.725100	0.952700
O251	O25	0.745500	0.417600	0.606100
C731	C73	0.796000	0.519100	0.841200
H491	H49	0.828300	0.530000	0.869000
C741	C74	0.781400	0.484800	0.762900
H501	H50	0.802900	0.473200	0.738500
C751	C75	0.891300	0.647800	0.942600
C761	C76	0.973460	0.658400	0.018000
H511	H51	0.955200	0.630800	0.061700
O261	O26	0.864000	0.657200	0.885600
C771	C77	0.973320	0.715200	0.889200
H521	H52	0.954900	0.725200	0.847600
C781	C78	0.948200	0.673300	0.952700
O271	O27	0.582400	0.327900	0.606100
C791	C79	0.480900	0.276900	0.841200
H531	H53	0.470000	0.298300	0.869000
C801	C80	0.515200	0.296600	0.762900
H541	H54	0.526800	0.329700	0.738500
C811	C81	0.352200	0.243500	0.942600
C821	C82	0.341600	0.315060	0.018000
H551	H55	0.369200	0.324400	0.061700
O281	O28	0.342800	0.206800	0.885600
C831	C83	0.284800	0.258120	0.889200
H561	H56	0.274800	0.229700	0.847600
C841	C84	0.326700	0.274900	0.952700
O291	O29	0.672100	0.254500	0.606100
C851	C85	0.723100	0.204000	0.841200
H571	H57	0.701700	0.171700	0.869000
C861	C86	0.703400	0.218600	0.762900
H581	H58	0.670300	0.197100	0.738500
C871	C87	0.756500	0.108700	0.942600
C881	C88	0.684940	0.026540	0.018000
H591	H59	0.675600	0.044800	0.061700
O301	O30	0.793200	0.136000	0.885600
C891	C89	0.741880	0.026680	0.889200
H601	H60	0.770300	0.045100	0.847600
C901	C90	0.725100	0.051800	0.952700
O311	O31	0.254500	0.582400	0.606100
C911	C91	0.204000	0.480900	0.841200
H611	H61	0.171700	0.470000	0.869000
C921	C92	0.218600	0.515200	0.762900
H621	H62	0.197100	0.526800	0.738500
C931	C93	0.108700	0.352200	0.942600
C941	C94	0.026540	0.341600	0.018000
H631	H63	0.044800	0.369200	0.061700
O321	O32	0.136000	0.342800	0.885600
C951	C95	0.026680	0.284800	0.889200
H641	H64	0.045100	0.274800	0.847600
C961	C96	0.051800	0.326700	0.952700
O331	O33	0.417600	0.672100	0.606100
C971	C97	0.519100	0.723100	0.841200
H651	H65	0.530000	0.701700	0.869000
C981	C98	0.484800	0.703400	0.762900
H661	H66	0.473200	0.670300	0.738500
C991	C99	0.647800	0.756500	0.942600
C1001	C100	0.658400	0.684940	0.018000
H671	H67	0.630800	0.675600	0.061700
O341	O34	0.657200	0.793200	0.885600
C1011	C101	0.715200	0.741880	0.889200
H681	H68	0.725200	0.770300	0.847600
C1021	C102	0.673300	0.725100	0.952700
O351	O35	0.327900	0.745500	0.606100
C1031	C103	0.276900	0.796000	0.841200
H691	H69	0.298300	0.828300	0.869000
C1041	C104	0.296600	0.781400	0.762900
H701	H70	0.329700	0.802900	0.738500
C1051	C105	0.243500	0.891300	0.942600
C1061	C106	0.315060	0.973460	0.018000
H711	H71	0.324400	0.955200	0.061700
O361	O36	0.206800	0.864000	0.885600
C1071	C107	0.258120	0.973320	0.889200
H721	H72	0.229700	0.954900	0.847600
C1081	C108	0.274900	0.948200	0.952700
O371	O37	0.417600	0.745500	0.393900
C1091	C109	0.519100	0.796000	0.158800
H731	H73	0.530000	0.828300	0.131000
C1101	C110	0.484800	0.781400	0.237100
H741	H74	0.473200	0.802900	0.261500
C1111	C111	0.647800	0.891300	0.057400
C1121	C112	0.658400	0.973460	0.982000
H751	H75	0.630800	0.955200	0.938300
O381	O38	0.657200	0.864000	0.114400
C1131	C113	0.715200	0.973320	0.110800
H761	H76	0.725200	0.954900	0.152400
C1141	C114	0.673300	0.948200	0.047300
O391	O39	0.327900	0.582400	0.393900
C1151	C115	0.276900	0.480900	0.158800
H771	H77	0.298300	0.470000	0.131000
C1161	C116	0.296600	0.515200	0.237100
H781	H78	0.329700	0.526800	0.261500
C1171	C117	0.243500	0.352200	0.057400
C1181	C118	0.315060	0.341600	0.982000
H791	H79	0.324400	0.369200	0.938300
O401	O40	0.206800	0.342800	0.114400
C1191	C119	0.258120	0.284800	0.110800
H801	H80	0.229700	0.274800	0.152400
C1201	C120	0.274900	0.326700	0.047300
O411	O41	0.254500	0.672100	0.393900
C1211	C121	0.204000	0.723100	0.158800
H811	H81	0.171700	0.701700	0.131000
C1221	C122	0.218600	0.703400	0.237100
H821	H82	0.197100	0.670300	0.261500
C1231	C123	0.108700	0.756500	0.057400
C1241	C124	0.026540	0.684940	0.982000
H831	H83	0.044800	0.675600	0.938300
O421	O42	0.136000	0.793200	0.114400
C1251	C125	0.026680	0.741880	0.110800
H841	H84	0.045100	0.770300	0.152400
C1261	C126	0.051800	0.725100	0.047300
O431	O43	0.582400	0.254500	0.393900
C1271	C127	0.480900	0.204000	0.158800
H851	H85	0.470000	0.171700	0.131000
C1281	C128	0.515200	0.218600	0.237100
H861	H86	0.526800	0.197100	0.261500
C1291	C129	0.352200	0.108700	0.057400
C1301	C130	0.341600	0.026540	0.982000
H871	H87	0.369200	0.044800	0.938300
O441	O44	0.342800	0.136000	0.114400
C1311	C131	0.284800	0.026680	0.110800
H881	H88	0.274800	0.045100	0.152400
C1321	C132	0.326700	0.051800	0.047300
O451	O45	0.672100	0.417600	0.393900
C1331	C133	0.723100	0.519100	0.158800
H891	H89	0.701700	0.530000	0.131000
C1341	C134	0.703400	0.484800	0.237100
H901	H90	0.670300	0.473200	0.261500
C1351	C135	0.756500	0.647800	0.057400
C1361	C136	0.684940	0.658400	0.982000
H911	H91	0.675600	0.630800	0.938300
O461	O46	0.793200	0.657200	0.114400
C1371	C137	0.741880	0.715200	0.110800
H921	H92	0.770300	0.725200	0.152400
C1381	C138	0.725100	0.673300	0.047300
O471	O47	0.745500	0.327900	0.393900
C1391	C139	0.796000	0.276900	0.158800
H931	H93	0.828300	0.298300	0.131000
C1401	C140	0.781400	0.296600	0.237100
H941	H94	0.802900	0.329700	0.261500
C1411	C141	0.891300	0.243500	0.057400
C1421	C142	0.973460	0.315060	0.982000
H951	H95	0.955200	0.324400	0.938300
O481	O48	0.864000	0.206800	0.114400
C1431	C143	0.973320	0.258120	0.110800
H961	H96	0.954900	0.229700	0.152400
C1441	C144	0.948200	0.274900	0.047300
Zn11	Zn1	0.206310	0.412620	0.000000
Zn21	Zn2	0.587380	0.793690	0.000000
Zn31	Zn3	0.206310	0.793690	0.000000
Zn41	Zn4	0.793690	0.587380	0.000000
Zn51	Zn5	0.412620	0.206310	0.000000
Zn61	Zn6	0.793690	0.206310	0.000000
Cr11	Cr1	0.260230	0.630110	0.500000
Cr21	Cr2	0.369890	0.630110	0.500000
Cr31	Cr3	0.369890	0.739770	0.500000
Cr41	Cr4	0.739770	0.369890	0.500000
Cr51	Cr5	0.630110	0.369890	0.500000
Cr61	Cr6	0.630110	0.260230	0.500000
C1451	C145	0.265700	0.531400	0.277200
N11	N1	0.230850	0.461700	0.119000
C1461	C146	0.283900	0.567800	0.361200
C1471	C147	0.468600	0.734300	0.277200
N21	N2	0.538300	0.769150	0.119000
C1481	C148	0.432200	0.716100	0.361200
C1491	C149	0.265700	0.734300	0.277200
N31	N3	0.230850	0.769150	0.119000
C1501	C150	0.283900	0.716100	0.361200
C1511	C151	0.734300	0.468600	0.277200
N41	N4	0.769150	0.538300	0.119000
C1521	C152	0.716100	0.432200	0.361200
C1531	C153	0.531400	0.265700	0.277200
N51	N5	0.461700	0.230850	0.119000
C1541	C154	0.567800	0.283900	0.361200
C1551	C155	0.734300	0.265700	0.277200
N61	N6	0.769150	0.230850	0.119000
C1561	C156	0.716100	0.283900	0.361200
C1571	C157	0.531400	0.265700	0.722800
N71	N7	0.461700	0.230850	0.881000
C1581	C158	0.567800	0.283900	0.638800
C1591	C159	0.734300	0.468600	0.722800
N81	N8	0.769150	0.538300	0.881000
C1601	C160	0.716100	0.432200	0.638800
C1611	C161	0.734300	0.265700	0.722800
N91	N9	0.769150	0.230850	0.881000
C1621	C162	0.716100	0.283900	0.638800
C1631	C163	0.468600	0.734300	0.722800
N101	N10	0.538300	0.769150	0.881000
C1641	C164	0.432200	0.716100	0.638800
C1651	C165	0.265700	0.531400	0.722800
N111	N11	0.230850	0.461700	0.881000
C1661	C166	0.283900	0.567800	0.638800
C1671	C167	0.265700	0.734300	0.722800
N121	N12	0.230850	0.769150	0.881000
C1681	C168	0.283900	0.716100	0.638800
O491	O49	0.134000	0.388100	0.000000
O501	O50	0.611900	0.745900	0.000000
O511	O51	0.254100	0.866000	0.000000
O521	O52	0.866000	0.611900	0.000000
O531	O53	0.388100	0.254100	0.000000
O541	O54	0.745900	0.134000	0.000000
O551	O55	0.388100	0.134000	0.000000
O561	O56	0.745900	0.611900	0.000000
O571	O57	0.866000	0.254100	0.000000
O581	O58	0.611900	0.866000	0.000000
O591	O59	0.254100	0.388100	0.000000
O601	O60	0.134000	0.745900	0.000000
O611	O61	0.333330	0.666670	0.500000
O621	O62	0.666670	0.333330	0.500000
