data_XOFFUT_clean_PM
_symmetry_space_group_name_H-M	'P1'
_cell_length_a	19.290700
_cell_length_b	19.290700
_cell_length_c	19.290700
_cell_angle_alpha	90.000000
_cell_angle_beta	90.000000
_cell_angle_gamma	90.000000
_symmetry_Int_Tables_number 1

loop_
_symmetry_equiv_pos_as_xyz
'x,y,z'

loop_
_atom_site_label
_atom_site_type_symbol
_atom_site_fract_x
_atom_site_fract_y
_atom_site_fract_z
V11	V1	0.755090	0.391020	0.142420
O11	O1	0.804510	0.481740	0.151480
O21	O2	0.808930	0.808640	0.137100
O31	O3	0.740870	0.722060	0.102630
O41	O4	0.891150	0.459750	0.226020
C11	C1	0.795300	0.744790	0.130750
C21	C2	0.855000	0.500480	0.189670
C31	C3	0.845260	0.693920	0.160740
C41	C4	0.830400	0.623430	0.156970
H11	H1	0.792490	0.608110	0.131440
C51	C5	0.872250	0.575960	0.191390
C61	C6	0.928700	0.599200	0.230100
H21	H2	0.956000	0.567500	0.254100
C71	C7	0.903000	0.716700	0.197700
H31	H3	0.914000	0.763600	0.198800
C81	C8	0.944100	0.669300	0.232800
H41	H4	0.982200	0.684500	0.258200
V21	V2	0.744910	0.608980	0.642420
O51	O5	0.695490	0.518260	0.651480
O61	O6	0.691070	0.191360	0.637100
O71	O7	0.759130	0.277940	0.602630
O81	O8	0.608850	0.540250	0.726020
C91	C9	0.704700	0.255210	0.630750
C101	C10	0.645000	0.499520	0.689670
C111	C11	0.654740	0.306080	0.660740
C121	C12	0.669600	0.376570	0.656970
H51	H5	0.707510	0.391890	0.631440
C131	C13	0.627750	0.424040	0.691390
C141	C14	0.571300	0.400800	0.730100
H61	H6	0.544000	0.432500	0.754100
C151	C15	0.597000	0.283300	0.697700
H71	H7	0.586000	0.236400	0.698800
C161	C16	0.555900	0.330700	0.732800
H81	H8	0.517800	0.315500	0.758200
V31	V3	0.244910	0.891020	0.357580
O91	O9	0.195490	0.981740	0.348520
O101	O10	0.191070	0.308640	0.362900
O111	O11	0.259130	0.222060	0.397370
O121	O12	0.108850	0.959750	0.273980
C171	C17	0.204700	0.244790	0.369250
C181	C18	0.145000	0.000480	0.310330
C191	C19	0.154740	0.193920	0.339260
C201	C20	0.169600	0.123430	0.343030
H91	H9	0.207510	0.108110	0.368560
C211	C21	0.127750	0.075960	0.308610
C221	C22	0.071300	0.099200	0.269900
H101	H10	0.044000	0.067500	0.245900
C231	C23	0.097000	0.216700	0.302300
H111	H11	0.086000	0.263600	0.301200
C241	C24	0.055900	0.169300	0.267200
H121	H12	0.017800	0.184500	0.241800
V41	V4	0.255090	0.108980	0.857580
O131	O13	0.304510	0.018260	0.848520
O141	O14	0.308930	0.691360	0.862900
O151	O15	0.240870	0.777940	0.897370
O161	O16	0.391150	0.040250	0.773980
C251	C25	0.295300	0.755210	0.869250
C261	C26	0.355000	0.999520	0.810330
C271	C27	0.345260	0.806080	0.839260
C281	C28	0.330400	0.876570	0.843030
H131	H13	0.292490	0.891890	0.868560
C291	C29	0.372250	0.924040	0.808610
C301	C30	0.428700	0.900800	0.769900
H141	H14	0.456000	0.932500	0.745900
C311	C31	0.403000	0.783300	0.802300
H151	H15	0.414000	0.736400	0.801200
C321	C32	0.444100	0.830700	0.767200
H161	H16	0.482200	0.815500	0.741800
V51	V5	0.142420	0.755090	0.391020
O171	O17	0.151480	0.804510	0.481740
O181	O18	0.137100	0.808930	0.808640
O191	O19	0.102630	0.740870	0.722060
O201	O20	0.226020	0.891150	0.459750
C331	C33	0.130750	0.795300	0.744790
C341	C34	0.189670	0.855000	0.500480
C351	C35	0.160740	0.845260	0.693920
C361	C36	0.156970	0.830400	0.623430
H171	H17	0.131440	0.792490	0.608110
C371	C37	0.191390	0.872250	0.575960
C381	C38	0.230100	0.928700	0.599200
H181	H18	0.254100	0.956000	0.567500
C391	C39	0.197700	0.903000	0.716700
H191	H19	0.198800	0.914000	0.763600
C401	C40	0.232800	0.944100	0.669300
H201	H20	0.258200	0.982200	0.684500
V61	V6	0.642420	0.744910	0.608980
O211	O21	0.651480	0.695490	0.518260
O221	O22	0.637100	0.691070	0.191360
O231	O23	0.602630	0.759130	0.277940
O241	O24	0.726020	0.608850	0.540250
C411	C41	0.630750	0.704700	0.255210
C421	C42	0.689670	0.645000	0.499520
C431	C43	0.660740	0.654740	0.306080
C441	C44	0.656970	0.669600	0.376570
H211	H21	0.631440	0.707510	0.391890
C451	C45	0.691390	0.627750	0.424040
C461	C46	0.730100	0.571300	0.400800
H221	H22	0.754100	0.544000	0.432500
C471	C47	0.697700	0.597000	0.283300
H231	H23	0.698800	0.586000	0.236400
C481	C48	0.732800	0.555900	0.330700
H241	H24	0.758200	0.517800	0.315500
V71	V7	0.357580	0.244910	0.891020
O251	O25	0.348520	0.195490	0.981740
O261	O26	0.362900	0.191070	0.308640
O271	O27	0.397370	0.259130	0.222060
O281	O28	0.273980	0.108850	0.959750
C491	C49	0.369250	0.204700	0.244790
C501	C50	0.310330	0.145000	0.000480
C511	C51	0.339260	0.154740	0.193920
C521	C52	0.343030	0.169600	0.123430
H251	H25	0.368560	0.207510	0.108110
C531	C53	0.308610	0.127750	0.075960
C541	C54	0.269900	0.071300	0.099200
H261	H26	0.245900	0.044000	0.067500
C551	C55	0.302300	0.097000	0.216700
H271	H27	0.301200	0.086000	0.263600
C561	C56	0.267200	0.055900	0.169300
H281	H28	0.241800	0.017800	0.184500
V81	V8	0.857580	0.255090	0.108980
O291	O29	0.848520	0.304510	0.018260
O301	O30	0.862900	0.308930	0.691360
O311	O31	0.897370	0.240870	0.777940
O321	O32	0.773980	0.391150	0.040250
C571	C57	0.869250	0.295300	0.755210
C581	C58	0.810330	0.355000	0.999520
C591	C59	0.839260	0.345260	0.806080
C601	C60	0.843030	0.330400	0.876570
H291	H29	0.868560	0.292490	0.891890
C611	C61	0.808610	0.372250	0.924040
C621	C62	0.769900	0.428700	0.900800
H301	H30	0.745900	0.456000	0.932500
C631	C63	0.802300	0.403000	0.783300
H311	H31	0.801200	0.414000	0.736400
C641	C64	0.767200	0.444100	0.830700
H321	H32	0.741800	0.482200	0.815500
V91	V9	0.391020	0.142420	0.755090
O331	O33	0.481740	0.151480	0.804510
O341	O34	0.808640	0.137100	0.808930
O351	O35	0.722060	0.102630	0.740870
O361	O36	0.459750	0.226020	0.891150
C651	C65	0.744790	0.130750	0.795300
C661	C66	0.500480	0.189670	0.855000
C671	C67	0.693920	0.160740	0.845260
C681	C68	0.623430	0.156970	0.830400
H331	H33	0.608110	0.131440	0.792490
C691	C69	0.575960	0.191390	0.872250
C701	C70	0.599200	0.230100	0.928700
H341	H34	0.567500	0.254100	0.956000
C711	C71	0.716700	0.197700	0.903000
H351	H35	0.763600	0.198800	0.914000
C721	C72	0.669300	0.232800	0.944100
H361	H36	0.684500	0.258200	0.982200
V101	V10	0.608980	0.642420	0.744910
O371	O37	0.518260	0.651480	0.695490
O381	O38	0.191360	0.637100	0.691070
O391	O39	0.277940	0.602630	0.759130
O401	O40	0.540250	0.726020	0.608850
C731	C73	0.255210	0.630750	0.704700
C741	C74	0.499520	0.689670	0.645000
C751	C75	0.306080	0.660740	0.654740
C761	C76	0.376570	0.656970	0.669600
H371	H37	0.391890	0.631440	0.707510
C771	C77	0.424040	0.691390	0.627750
C781	C78	0.400800	0.730100	0.571300
H381	H38	0.432500	0.754100	0.544000
C791	C79	0.283300	0.697700	0.597000
H391	H39	0.236400	0.698800	0.586000
C801	C80	0.330700	0.732800	0.555900
H401	H40	0.315500	0.758200	0.517800
V111	V11	0.891020	0.357580	0.244910
O411	O41	0.981740	0.348520	0.195490
O421	O42	0.308640	0.362900	0.191070
O431	O43	0.222060	0.397370	0.259130
O441	O44	0.959750	0.273980	0.108850
C811	C81	0.244790	0.369250	0.204700
C821	C82	0.000480	0.310330	0.145000
C831	C83	0.193920	0.339260	0.154740
C841	C84	0.123430	0.343030	0.169600
H411	H41	0.108110	0.368560	0.207510
C851	C85	0.075960	0.308610	0.127750
C861	C86	0.099200	0.269900	0.071300
H421	H42	0.067500	0.245900	0.044000
C871	C87	0.216700	0.302300	0.097000
H431	H43	0.263600	0.301200	0.086000
C881	C88	0.169300	0.267200	0.055900
H441	H44	0.184500	0.241800	0.017800
V121	V12	0.108980	0.857580	0.255090
O451	O45	0.018260	0.848520	0.304510
O461	O46	0.691360	0.862900	0.308930
O471	O47	0.777940	0.897370	0.240870
O481	O48	0.040250	0.773980	0.391150
C891	C89	0.755210	0.869250	0.295300
C901	C90	0.999520	0.810330	0.355000
C911	C91	0.806080	0.839260	0.345260
C921	C92	0.876570	0.843030	0.330400
H451	H45	0.891890	0.868560	0.292490
C931	C93	0.924040	0.808610	0.372250
C941	C94	0.900800	0.769900	0.428700
H461	H46	0.932500	0.745900	0.456000
C951	C95	0.783300	0.802300	0.403000
H471	H47	0.736400	0.801200	0.414000
C961	C96	0.830700	0.767200	0.444100
H481	H48	0.815500	0.741800	0.482200
V131	V13	0.244910	0.608980	0.857580
O491	O49	0.195490	0.518260	0.848520
O501	O50	0.191070	0.191360	0.862900
O511	O51	0.259130	0.277940	0.897370
O521	O52	0.108850	0.540250	0.773980
C971	C97	0.204700	0.255210	0.869250
C981	C98	0.145000	0.499520	0.810330
C991	C99	0.154740	0.306080	0.839260
C1001	C100	0.169600	0.376570	0.843030
H491	H49	0.207510	0.391890	0.868560
C1011	C101	0.127750	0.424040	0.808610
C1021	C102	0.071300	0.400800	0.769900
H501	H50	0.044000	0.432500	0.745900
C1031	C103	0.097000	0.283300	0.802300
H511	H51	0.086000	0.236400	0.801200
C1041	C104	0.055900	0.330700	0.767200
H521	H52	0.017800	0.315500	0.741800
V141	V14	0.255090	0.391020	0.357580
O531	O53	0.304510	0.481740	0.348520
O541	O54	0.308930	0.808640	0.362900
O551	O55	0.240870	0.722060	0.397370
O561	O56	0.391150	0.459750	0.273980
C1051	C105	0.295300	0.744790	0.369250
C1061	C106	0.355000	0.500480	0.310330
C1071	C107	0.345260	0.693920	0.339260
C1081	C108	0.330400	0.623430	0.343030
H531	H53	0.292490	0.608110	0.368560
C1091	C109	0.372250	0.575960	0.308610
C1101	C110	0.428700	0.599200	0.269900
H541	H54	0.456000	0.567500	0.245900
C1111	C111	0.403000	0.716700	0.302300
H551	H55	0.414000	0.763600	0.301200
C1121	C112	0.444100	0.669300	0.267200
H561	H56	0.482200	0.684500	0.241800
V151	V15	0.755090	0.108980	0.642420
O571	O57	0.804510	0.018260	0.651480
O581	O58	0.808930	0.691360	0.637100
O591	O59	0.740870	0.777940	0.602630
O601	O60	0.891150	0.040250	0.726020
C1131	C113	0.795300	0.755210	0.630750
C1141	C114	0.855000	0.999520	0.689670
C1151	C115	0.845260	0.806080	0.660740
C1161	C116	0.830400	0.876570	0.656970
H571	H57	0.792490	0.891890	0.631440
C1171	C117	0.872250	0.924040	0.691390
C1181	C118	0.928700	0.900800	0.730100
H581	H58	0.956000	0.932500	0.754100
C1191	C119	0.903000	0.783300	0.697700
H591	H59	0.914000	0.736400	0.698800
C1201	C120	0.944100	0.830700	0.732800
H601	H60	0.982200	0.815500	0.758200
V161	V16	0.744910	0.891020	0.142420
O611	O61	0.695490	0.981740	0.151480
O621	O62	0.691070	0.308640	0.137100
O631	O63	0.759130	0.222060	0.102630
O641	O64	0.608850	0.959750	0.226020
C1211	C121	0.704700	0.244790	0.130750
C1221	C122	0.645000	0.000480	0.189670
C1231	C123	0.654740	0.193920	0.160740
C1241	C124	0.669600	0.123430	0.156970
H611	H61	0.707510	0.108110	0.131440
C1251	C125	0.627750	0.075960	0.191390
C1261	C126	0.571300	0.099200	0.230100
H621	H62	0.544000	0.067500	0.254100
C1271	C127	0.597000	0.216700	0.197700
H631	H63	0.586000	0.263600	0.198800
C1281	C128	0.555900	0.169300	0.232800
H641	H64	0.517800	0.184500	0.258200
V171	V17	0.857580	0.244910	0.608980
O651	O65	0.848520	0.195490	0.518260
O661	O66	0.862900	0.191070	0.191360
O671	O67	0.897370	0.259130	0.277940
O681	O68	0.773980	0.108850	0.540250
C1291	C129	0.869250	0.204700	0.255210
C1301	C130	0.810330	0.145000	0.499520
C1311	C131	0.839260	0.154740	0.306080
C1321	C132	0.843030	0.169600	0.376570
H651	H65	0.868560	0.207510	0.391890
C1331	C133	0.808610	0.127750	0.424040
C1341	C134	0.769900	0.071300	0.400800
H661	H66	0.745900	0.044000	0.432500
C1351	C135	0.802300	0.097000	0.283300
H671	H67	0.801200	0.086000	0.236400
C1361	C136	0.767200	0.055900	0.330700
H681	H68	0.741800	0.017800	0.315500
V181	V18	0.357580	0.255090	0.391020
O691	O69	0.348520	0.304510	0.481740
O701	O70	0.362900	0.308930	0.808640
O711	O71	0.397370	0.240870	0.722060
O721	O72	0.273980	0.391150	0.459750
C1371	C137	0.369250	0.295300	0.744790
C1381	C138	0.310330	0.355000	0.500480
C1391	C139	0.339260	0.345260	0.693920
C1401	C140	0.343030	0.330400	0.623430
H691	H69	0.368560	0.292490	0.608110
C1411	C141	0.308610	0.372250	0.575960
C1421	C142	0.269900	0.428700	0.599200
H701	H70	0.245900	0.456000	0.567500
C1431	C143	0.302300	0.403000	0.716700
H711	H71	0.301200	0.414000	0.763600
C1441	C144	0.267200	0.444100	0.669300
H721	H72	0.241800	0.482200	0.684500
V191	V19	0.642420	0.755090	0.108980
O731	O73	0.651480	0.804510	0.018260
O741	O74	0.637100	0.808930	0.691360
O751	O75	0.602630	0.740870	0.777940
O761	O76	0.726020	0.891150	0.040250
C1451	C145	0.630750	0.795300	0.755210
C1461	C146	0.689670	0.855000	0.999520
C1471	C147	0.660740	0.845260	0.806080
C1481	C148	0.656970	0.830400	0.876570
H731	H73	0.631440	0.792490	0.891890
C1491	C149	0.691390	0.872250	0.924040
C1501	C150	0.730100	0.928700	0.900800
H741	H74	0.754100	0.956000	0.932500
C1511	C151	0.697700	0.903000	0.783300
H751	H75	0.698800	0.914000	0.736400
C1521	C152	0.732800	0.944100	0.830700
H761	H76	0.758200	0.982200	0.815500
V201	V20	0.142420	0.744910	0.891020
O771	O77	0.151480	0.695490	0.981740
O781	O78	0.137100	0.691070	0.308640
O791	O79	0.102630	0.759130	0.222060
O801	O80	0.226020	0.608850	0.959750
C1531	C153	0.130750	0.704700	0.244790
C1541	C154	0.189670	0.645000	0.000480
C1551	C155	0.160740	0.654740	0.193920
C1561	C156	0.156970	0.669600	0.123430
H771	H77	0.131440	0.707510	0.108110
C1571	C157	0.191390	0.627750	0.075960
C1581	C158	0.230100	0.571300	0.099200
H781	H78	0.254100	0.544000	0.067500
C1591	C159	0.197700	0.597000	0.216700
H791	H79	0.198800	0.586000	0.263600
C1601	C160	0.232800	0.555900	0.169300
H801	H80	0.258200	0.517800	0.184500
V211	V21	0.608980	0.857580	0.244910
O811	O81	0.518260	0.848520	0.195490
O821	O82	0.191360	0.862900	0.191070
O831	O83	0.277940	0.897370	0.259130
O841	O84	0.540250	0.773980	0.108850
C1611	C161	0.255210	0.869250	0.204700
C1621	C162	0.499520	0.810330	0.145000
C1631	C163	0.306080	0.839260	0.154740
C1641	C164	0.376570	0.843030	0.169600
H811	H81	0.391890	0.868560	0.207510
C1651	C165	0.424040	0.808610	0.127750
C1661	C166	0.400800	0.769900	0.071300
H821	H82	0.432500	0.745900	0.044000
C1671	C167	0.283300	0.802300	0.097000
H831	H83	0.236400	0.801200	0.086000
C1681	C168	0.330700	0.767200	0.055900
H841	H84	0.315500	0.741800	0.017800
V221	V22	0.391020	0.357580	0.255090
O851	O85	0.481740	0.348520	0.304510
O861	O86	0.808640	0.362900	0.308930
O871	O87	0.722060	0.397370	0.240870
O881	O88	0.459750	0.273980	0.391150
C1691	C169	0.744790	0.369250	0.295300
C1701	C170	0.500480	0.310330	0.355000
C1711	C171	0.693920	0.339260	0.345260
C1721	C172	0.623430	0.343030	0.330400
H851	H85	0.608110	0.368560	0.292490
C1731	C173	0.575960	0.308610	0.372250
C1741	C174	0.599200	0.269900	0.428700
H861	H86	0.567500	0.245900	0.456000
C1751	C175	0.716700	0.302300	0.403000
H871	H87	0.763600	0.301200	0.414000
C1761	C176	0.669300	0.267200	0.444100
H881	H88	0.684500	0.241800	0.482200
V231	V23	0.108980	0.642420	0.755090
O891	O89	0.018260	0.651480	0.804510
O901	O90	0.691360	0.637100	0.808930
O911	O91	0.777940	0.602630	0.740870
O921	O92	0.040250	0.726020	0.891150
C1771	C177	0.755210	0.630750	0.795300
C1781	C178	0.999520	0.689670	0.855000
C1791	C179	0.806080	0.660740	0.845260
C1801	C180	0.876570	0.656970	0.830400
H891	H89	0.891890	0.631440	0.792490
C1811	C181	0.924040	0.691390	0.872250
C1821	C182	0.900800	0.730100	0.928700
H901	H90	0.932500	0.754100	0.956000
C1831	C183	0.783300	0.697700	0.903000
H911	H91	0.736400	0.698800	0.914000
C1841	C184	0.830700	0.732800	0.944100
H921	H92	0.815500	0.758200	0.982200
V241	V24	0.891020	0.142420	0.744910
O931	O93	0.981740	0.151480	0.695490
O941	O94	0.308640	0.137100	0.691070
O951	O95	0.222060	0.102630	0.759130
O961	O96	0.959750	0.226020	0.608850
C1851	C185	0.244790	0.130750	0.704700
C1861	C186	0.000480	0.189670	0.645000
C1871	C187	0.193920	0.160740	0.654740
C1881	C188	0.123430	0.156970	0.669600
H931	H93	0.108110	0.131440	0.707510
C1891	C189	0.075960	0.191390	0.627750
C1901	C190	0.099200	0.230100	0.571300
H941	H94	0.067500	0.254100	0.544000
C1911	C191	0.216700	0.197700	0.597000
H951	H95	0.263600	0.198800	0.586000
C1921	C192	0.169300	0.232800	0.555900
H961	H96	0.184500	0.258200	0.517800
O971	O97	0.834940	0.334940	0.165060
O981	O98	0.665060	0.665060	0.665060
O991	O99	0.165060	0.834940	0.334940
O1001	O100	0.334940	0.165060	0.834940
O1011	O101	0.165060	0.665060	0.834940
O1021	O102	0.334940	0.334940	0.334940
O1031	O103	0.834940	0.165060	0.665060
O1041	O104	0.665060	0.834940	0.165060
