data_XOFPEP01_clean_PM
_symmetry_space_group_name_H-M	'P1'
_cell_length_a	10.663000
_cell_length_b	11.090000
_cell_length_c	14.718000
_cell_angle_alpha	106.880000
_cell_angle_beta	95.760000
_cell_angle_gamma	112.990000
_symmetry_Int_Tables_number 1

loop_
_symmetry_equiv_pos_as_xyz
'x,y,z'

loop_
_atom_site_label
_atom_site_type_symbol
_atom_site_fract_x
_atom_site_fract_y
_atom_site_fract_z
U11	U1	0.608130	0.830750	0.889420
U21	U2	0.341010	0.351380	0.509820
O11	O1	0.647400	0.635900	0.788000
O21	O2	0.573200	0.612200	0.918100
C11	C1	0.609800	0.565600	0.843400
C21	C2	0.610000	0.421500	0.815200
C31	C3	0.657000	0.376300	0.732600
H11	H1	0.684900	0.431200	0.694400
C41	C4	0.661000	0.249900	0.709100
C51	C5	0.626200	0.166700	0.766700
H21	H2	0.632100	0.081800	0.749700
C61	C6	0.582400	0.215000	0.850400
C71	C7	0.573800	0.343200	0.873000
H31	H3	0.543100	0.375000	0.928100
C81	C8	0.551500	0.133300	0.915700
O31	O3	0.468600	0.149800	0.968400
O41	O4	0.604200	0.049000	0.913600
N11	N1	0.700900	0.196700	0.618900
O51	O5	0.684700	0.073700	0.591600
O61	O6	0.750300	0.275900	0.575600
O71	O7	0.699100	0.895700	0.764000
O81	O8	0.786800	0.836400	0.636700
C91	C9	0.789900	0.925100	0.715300
C101	C10	0.909700	0.066900	0.751000
C111	C11	0.939900	0.161700	0.846500
H41	H4	0.884000	0.138100	0.889000
C121	C12	0.054900	0.290700	0.875400
C131	C13	0.141400	0.331400	0.816500
H51	H5	0.219800	0.418100	0.839500
C141	C14	0.108100	0.237800	0.720100
C151	C15	0.993700	0.109600	0.688100
H61	H6	0.971200	0.049600	0.623600
C161	C16	0.194500	0.279500	0.650000
O91	O9	0.148800	0.198000	0.560500
O101	O10	0.306900	0.391100	0.679100
N21	N2	0.085100	0.390100	0.975700
O111	O11	0.151000	0.517600	0.990100
O121	O12	0.044400	0.345400	0.038800
O131	O13	0.521000	0.573200	0.595900
H71	H7	0.569000	0.571400	0.641200
H81	H8	0.489000	0.626800	0.617400
U31	U3	0.391870	0.169250	0.110580
U41	U4	0.658990	0.648620	0.490180
O141	O14	0.352600	0.364100	0.212000
O151	O15	0.426800	0.387800	0.081900
C171	C17	0.390200	0.434400	0.156600
C181	C18	0.390000	0.578500	0.184800
C191	C19	0.343000	0.623700	0.267400
H91	H9	0.315100	0.568800	0.305600
C201	C20	0.339000	0.750100	0.290900
C211	C21	0.373800	0.833300	0.233300
H101	H10	0.367900	0.918200	0.250300
C221	C22	0.417600	0.785000	0.149600
C231	C23	0.426200	0.656800	0.127000
H111	H11	0.456900	0.625000	0.071900
C241	C24	0.448500	0.866700	0.084300
O161	O16	0.531400	0.850200	0.031600
O171	O17	0.395800	0.951000	0.086400
N31	N3	0.299100	0.803300	0.381100
O181	O18	0.315300	0.926300	0.408400
O191	O19	0.249700	0.724100	0.424400
O201	O20	0.300900	0.104300	0.236000
O211	O21	0.213200	0.163600	0.363300
C251	C25	0.210100	0.074900	0.284700
C261	C26	0.090300	0.933100	0.249000
C271	C27	0.060100	0.838300	0.153500
H121	H12	0.116000	0.861900	0.111000
C281	C28	0.945100	0.709300	0.124600
C291	C29	0.858600	0.668600	0.183500
H131	H13	0.780200	0.581900	0.160500
C301	C30	0.891900	0.762200	0.279900
C311	C31	0.006300	0.890400	0.311900
H141	H14	0.028800	0.950400	0.376400
C321	C32	0.805500	0.720500	0.350000
O221	O22	0.851200	0.802000	0.439500
O231	O23	0.693100	0.608900	0.320900
N41	N4	0.914900	0.609900	0.024300
O241	O24	0.849000	0.482400	0.009900
O251	O25	0.955600	0.654600	0.961200
O261	O26	0.479000	0.426800	0.404100
H151	H15	0.431000	0.428600	0.358800
H161	H16	0.511000	0.373200	0.382600
