data_XOFPEP_clean_PM
_symmetry_space_group_name_H-M	'P1'
_cell_length_a	10.664600
_cell_length_b	11.089700
_cell_length_c	14.724000
_cell_angle_alpha	106.806000
_cell_angle_beta	95.727000
_cell_angle_gamma	113.001000
_symmetry_Int_Tables_number 1

loop_
_symmetry_equiv_pos_as_xyz
'x,y,z'

loop_
_atom_site_label
_atom_site_type_symbol
_atom_site_fract_x
_atom_site_fract_y
_atom_site_fract_z
C11	C1	0.108700	0.063300	0.342180
C21	C2	0.112000	0.923900	0.315510
C31	C3	0.072700	0.842300	0.373280
C41	C4	0.083600	0.716500	0.350630
C51	C5	0.126900	0.668100	0.266920
C61	C6	0.161100	0.749700	0.209380
C71	C7	0.157300	0.877800	0.232580
C81	C8	0.050700	0.631700	0.415420
C91	C9	0.693800	0.777900	0.149050
C101	C10	0.608600	0.738600	0.220200
C111	C11	0.492600	0.607800	0.187620
C121	C12	0.410100	0.568100	0.250710
C131	C13	0.441100	0.660400	0.346240
C141	C14	0.555300	0.790100	0.375850
C151	C15	0.641900	0.832200	0.315490
C161	C16	0.290000	0.424400	0.214970
N11	N1	0.585400	0.891000	0.475930
N21	N2	0.200500	0.695400	0.118270
O11	O1	0.148340	0.136630	0.288430
O21	O2	0.072250	0.110760	0.417910
O31	O3	0.968980	0.649020	0.468550
O41	O4	0.104710	0.548860	0.413820
O51	O5	0.199080	0.396550	0.264230
O61	O6	0.287760	0.338050	0.136840
O71	O7	0.806750	0.890820	0.178740
O81	O8	0.648350	0.698210	0.059880
O91	O9	0.978670	0.926120	0.903410
O101	O10	0.250260	0.776660	0.075590
O111	O11	0.183900	0.573940	0.091120
O121	O12	0.543000	0.844300	0.538190
O131	O13	0.650780	0.016330	0.489680
U11	U1	0.107770	0.330380	0.389170
U21	U2	0.840970	0.851260	0.009620
H11	H1	0.718000	0.929000	0.344000
H21	H2	0.470000	0.541000	0.125200
H31	H3	0.391000	0.647000	0.392300
H41	H4	0.041000	0.870000	0.422200
H51	H5	0.132000	0.587000	0.247000
H61	H6	0.181000	0.919000	0.193700
C171	C17	0.891300	0.936700	0.657820
C181	C18	0.888000	0.076100	0.684490
C191	C19	0.927300	0.157700	0.626720
C201	C20	0.916400	0.283500	0.649370
C211	C21	0.873100	0.331900	0.733080
C221	C22	0.838900	0.250300	0.790620
C231	C23	0.842700	0.122200	0.767420
C241	C24	0.949300	0.368300	0.584580
C251	C25	0.306200	0.222100	0.850950
C261	C26	0.391400	0.261400	0.779800
C271	C27	0.507400	0.392200	0.812380
C281	C28	0.589900	0.431900	0.749290
C291	C29	0.558900	0.339600	0.653760
C301	C30	0.444700	0.209900	0.624150
C311	C31	0.358100	0.167800	0.684510
C321	C32	0.710000	0.575600	0.785030
N31	N3	0.414600	0.109000	0.524070
N41	N4	0.799500	0.304600	0.881730
O141	O14	0.851660	0.863370	0.711570
O151	O15	0.927750	0.889240	0.582090
O161	O16	0.031020	0.350980	0.531450
O171	O17	0.895290	0.451140	0.586180
O181	O18	0.800920	0.603450	0.735770
O191	O19	0.712240	0.661950	0.863160
O201	O20	0.193250	0.109180	0.821260
O211	O21	0.351650	0.301790	0.940120
O221	O22	0.021330	0.073880	0.096590
O231	O23	0.749740	0.223340	0.924410
O241	O24	0.816100	0.426060	0.908880
O251	O25	0.457000	0.155700	0.461810
O261	O26	0.349220	0.983670	0.510320
U31	U3	0.892230	0.669620	0.610830
U41	U4	0.159030	0.148740	0.990380
H71	H7	0.282000	0.071000	0.656000
H81	H8	0.530000	0.459000	0.874800
H91	H9	0.609000	0.353000	0.607700
H101	H10	0.959000	0.130000	0.577800
H111	H11	0.868000	0.413000	0.753000
H121	H12	0.819000	0.081000	0.806300
