data_XOHTUJ_clean_PM
_symmetry_space_group_name_H-M	'P1'
_cell_length_a	18.837000
_cell_length_b	15.021000
_cell_length_c	14.950000
_cell_angle_alpha	90.000000
_cell_angle_beta	109.520000
_cell_angle_gamma	90.000000
_symmetry_Int_Tables_number 1

loop_
_symmetry_equiv_pos_as_xyz
'x,y,z'

loop_
_atom_site_label
_atom_site_type_symbol
_atom_site_fract_x
_atom_site_fract_y
_atom_site_fract_z
Ru11	Ru1	0.747380	0.989330	0.252900
Ag11	Ag1	0.870540	0.880980	0.539160
Ag21	Ag2	0.625550	0.162170	0.994190
Cl11	Cl1	0.731630	0.081000	0.116700
Cl21	Cl2	0.765640	0.889600	0.384200
C11	C1	0.618300	0.859700	0.185800
H11	H1	0.655100	0.816900	0.211400
C21	C2	0.850200	0.846300	0.229600
H21	H2	0.879500	0.863200	0.290700
C31	C3	0.883500	0.060900	0.401100
H31	H3	0.854000	0.054100	0.439600
C41	C4	0.544300	0.832600	0.139200
H41	H4	0.533200	0.772100	0.133400
C51	C5	0.773400	0.791000	0.056300
H51	H5	0.744700	0.773000	0.995400
C61	C6	0.748600	0.862200	0.096400
H61	H6	0.705100	0.892100	0.060700
C71	C7	0.729500	0.174300	0.318200
H71	H7	0.756600	0.190200	0.278800
C81	C8	0.901200	0.049000	0.258700
H81	H8	0.884000	0.033900	0.194600
C91	C9	0.580100	0.003800	0.158200
H91	H9	0.589900	0.064600	0.163400
C101	C10	0.671900	0.073000	0.381200
H101	H10	0.658200	0.014600	0.388300
C111	C11	0.509400	0.975700	0.114600
H111	H11	0.472000	0.018300	0.091100
C121	C12	0.874800	0.776700	0.186400
H121	H12	0.920300	0.749100	0.218900
C131	C13	0.954900	0.094400	0.439100
H131	H13	0.971600	0.112000	0.502400
C141	C14	0.972200	0.081800	0.297800
H141	H14	0.001300	0.089700	0.258900
C151	C15	0.650600	0.139900	0.431000
H151	H15	0.621800	0.125300	0.468700
C161	C16	0.709300	0.237100	0.369000
H161	H16	0.724200	0.295300	0.363400
N11	N1	0.489700	0.890900	0.103100
N21	N2	0.637600	0.946000	0.194800
N31	N3	0.785900	0.890000	0.186700
N41	N4	0.835100	0.748200	0.099700
N51	N5	0.855300	0.037800	0.309300
N61	N6	0.001900	0.103100	0.389200
N71	N7	0.711000	0.089100	0.323800
N81	N8	0.670000	0.223100	0.426500
Ru21	Ru2	0.252620	0.489330	0.247100
Ag31	Ag3	0.129460	0.380980	0.960840
Ag41	Ag4	0.374450	0.662170	0.505810
Cl31	Cl3	0.268370	0.581000	0.383300
Cl41	Cl4	0.234360	0.389600	0.115800
C171	C17	0.381700	0.359700	0.314200
H171	H17	0.344900	0.316900	0.288600
C181	C18	0.149800	0.346300	0.270400
H181	H18	0.120500	0.363200	0.209300
C191	C19	0.116500	0.560900	0.098900
H191	H19	0.146000	0.554100	0.060400
C201	C20	0.455700	0.332600	0.360800
H201	H20	0.466800	0.272100	0.366600
C211	C21	0.226600	0.291000	0.443700
H211	H21	0.255300	0.273000	0.504600
C221	C22	0.251400	0.362200	0.403600
H221	H22	0.294900	0.392100	0.439300
C231	C23	0.270500	0.674300	0.181800
H231	H23	0.243400	0.690200	0.221200
C241	C24	0.098800	0.549000	0.241300
H241	H24	0.116000	0.533900	0.305400
C251	C25	0.419900	0.503800	0.341800
H251	H25	0.410100	0.564600	0.336600
C261	C26	0.328100	0.573000	0.118800
H261	H26	0.341800	0.514600	0.111700
C271	C27	0.490600	0.475700	0.385400
H271	H27	0.528000	0.518300	0.408900
C281	C28	0.125200	0.276700	0.313600
H281	H28	0.079700	0.249100	0.281100
C291	C29	0.045100	0.594400	0.060900
H291	H29	0.028400	0.612000	0.997600
C301	C30	0.027800	0.581800	0.202200
H301	H30	0.998700	0.589700	0.241100
C311	C31	0.349400	0.639900	0.069000
H311	H31	0.378200	0.625300	0.031300
C321	C32	0.290700	0.737100	0.131000
H321	H32	0.275800	0.795300	0.136600
N91	N9	0.510300	0.390900	0.396900
N101	N10	0.362400	0.446000	0.305200
N111	N11	0.214100	0.390000	0.313300
N121	N12	0.164900	0.248200	0.400300
N131	N13	0.144700	0.537800	0.190700
N141	N14	0.998100	0.603100	0.110800
N151	N15	0.289000	0.589100	0.176200
N161	N16	0.330000	0.723100	0.073500
Ru31	Ru3	0.252620	0.010670	0.747100
Ag51	Ag5	0.129460	0.119020	0.460840
Ag61	Ag6	0.374450	0.837830	0.005810
Cl51	Cl5	0.268370	0.919000	0.883300
Cl61	Cl6	0.234360	0.110400	0.615800
C331	C33	0.381700	0.140300	0.814200
H331	H33	0.344900	0.183100	0.788600
C341	C34	0.149800	0.153700	0.770400
H341	H34	0.120500	0.136800	0.709300
C351	C35	0.116500	0.939100	0.598900
H351	H35	0.146000	0.945900	0.560400
C361	C36	0.455700	0.167400	0.860800
H361	H36	0.466800	0.227900	0.866600
C371	C37	0.226600	0.209000	0.943700
H371	H37	0.255300	0.227000	0.004600
C381	C38	0.251400	0.137800	0.903600
H381	H38	0.294900	0.107900	0.939300
C391	C39	0.270500	0.825700	0.681800
H391	H39	0.243400	0.809800	0.721200
C401	C40	0.098800	0.951000	0.741300
H401	H40	0.116000	0.966100	0.805400
C411	C41	0.419900	0.996200	0.841800
H411	H41	0.410100	0.935400	0.836600
C421	C42	0.328100	0.927000	0.618800
H421	H42	0.341800	0.985400	0.611700
C431	C43	0.490600	0.024300	0.885400
H431	H43	0.528000	0.981700	0.908900
C441	C44	0.125200	0.223300	0.813600
H441	H44	0.079700	0.250900	0.781100
C451	C45	0.045100	0.905600	0.560900
H451	H45	0.028400	0.888000	0.497600
C461	C46	0.027800	0.918200	0.702200
H461	H46	0.998700	0.910300	0.741100
C471	C47	0.349400	0.860100	0.569000
H471	H47	0.378200	0.874700	0.531300
C481	C48	0.290700	0.762900	0.631000
H481	H48	0.275800	0.704700	0.636600
N171	N17	0.510300	0.109100	0.896900
N181	N18	0.362400	0.054000	0.805200
N191	N19	0.214100	0.110000	0.813300
N201	N20	0.164900	0.251800	0.900300
N211	N21	0.144700	0.962200	0.690700
N221	N22	0.998100	0.896900	0.610800
N231	N23	0.289000	0.910900	0.676200
N241	N24	0.330000	0.776900	0.573500
Ru41	Ru4	0.747380	0.510670	0.752900
Ag71	Ag7	0.870540	0.619020	0.039160
Ag81	Ag8	0.625550	0.337830	0.494190
Cl71	Cl7	0.731630	0.419000	0.616700
Cl81	Cl8	0.765640	0.610400	0.884200
C491	C49	0.618300	0.640300	0.685800
H491	H49	0.655100	0.683100	0.711400
C501	C50	0.850200	0.653700	0.729600
H501	H50	0.879500	0.636800	0.790700
C511	C51	0.883500	0.439100	0.901100
H511	H51	0.854000	0.445900	0.939600
C521	C52	0.544300	0.667400	0.639200
H521	H52	0.533200	0.727900	0.633400
C531	C53	0.773400	0.709000	0.556300
H531	H53	0.744700	0.727000	0.495400
C541	C54	0.748600	0.637800	0.596400
H541	H54	0.705100	0.607900	0.560700
C551	C55	0.729500	0.325700	0.818200
H551	H55	0.756600	0.309800	0.778800
C561	C56	0.901200	0.451000	0.758700
H561	H56	0.884000	0.466100	0.694600
C571	C57	0.580100	0.496200	0.658200
H571	H57	0.589900	0.435400	0.663400
C581	C58	0.671900	0.427000	0.881200
H581	H58	0.658200	0.485400	0.888300
C591	C59	0.509400	0.524300	0.614600
H591	H59	0.472000	0.481700	0.591100
C601	C60	0.874800	0.723300	0.686400
H601	H60	0.920300	0.750900	0.718900
C611	C61	0.954900	0.405600	0.939100
H611	H61	0.971600	0.388000	0.002400
C621	C62	0.972200	0.418200	0.797800
H621	H62	0.001300	0.410300	0.758900
C631	C63	0.650600	0.360100	0.931000
H631	H63	0.621800	0.374700	0.968700
C641	C64	0.709300	0.262900	0.869000
H641	H64	0.724200	0.204700	0.863400
N251	N25	0.489700	0.609100	0.603100
N261	N26	0.637600	0.554000	0.694800
N271	N27	0.785900	0.610000	0.686700
N281	N28	0.835100	0.751800	0.599700
N291	N29	0.855300	0.462200	0.809300
N301	N30	0.001900	0.396900	0.889200
N311	N31	0.711000	0.410900	0.823800
N321	N32	0.670000	0.276900	0.926500
