data_XOJPES_clean_PM
_symmetry_space_group_name_H-M	'P1'
_cell_length_a	14.877000
_cell_length_b	8.554500
_cell_length_c	7.408100
_cell_angle_alpha	90.000000
_cell_angle_beta	118.778000
_cell_angle_gamma	90.000000
_symmetry_Int_Tables_number 1

loop_
_symmetry_equiv_pos_as_xyz
'x,y,z'

loop_
_atom_site_label
_atom_site_type_symbol
_atom_site_fract_x
_atom_site_fract_y
_atom_site_fract_z
Cu11	Cu1	0.317610	0.680840	0.181840
C11	C1	0.458600	0.650300	0.235400
N11	N1	0.257070	0.499300	0.252700
C21	C2	0.233150	0.386300	0.298800
Cu21	Cu2	0.817610	0.180840	0.181840
C31	C3	0.958600	0.150300	0.235400
N21	N2	0.757070	0.999300	0.252700
C41	C4	0.733150	0.886300	0.298800
Cu31	Cu3	0.682390	0.680840	0.318160
C51	C5	0.541400	0.650300	0.264600
N31	N3	0.742930	0.499300	0.247300
C61	C6	0.766850	0.386300	0.201200
Cu41	Cu4	0.182390	0.180840	0.318160
C71	C7	0.041400	0.150300	0.264600
N41	N4	0.242930	0.999300	0.247300
C81	C8	0.266850	0.886300	0.201200
Cu51	Cu5	0.682390	0.319160	0.818160
C91	C9	0.541400	0.349700	0.764600
N51	N5	0.742930	0.500700	0.747300
C101	C10	0.766850	0.613700	0.701200
Cu61	Cu6	0.182390	0.819160	0.818160
C111	C11	0.041400	0.849700	0.764600
N61	N6	0.242930	0.000700	0.747300
C121	C12	0.266850	0.113700	0.701200
Cu71	Cu7	0.317610	0.319160	0.681840
C131	C13	0.458600	0.349700	0.735400
N71	N7	0.257070	0.500700	0.752700
C141	C14	0.233150	0.613700	0.798800
Cu81	Cu8	0.817610	0.819160	0.681840
C151	C15	0.958600	0.849700	0.735400
N81	N8	0.757070	0.000700	0.752700
C161	C16	0.733150	0.113700	0.798800
