data_XOMCIN_clean_PM
_symmetry_space_group_name_H-M	'P1'
_cell_length_a	10.949500
_cell_length_b	22.085600
_cell_length_c	28.331400
_cell_angle_alpha	100.496000
_cell_angle_beta	99.542000
_cell_angle_gamma	101.674000
_symmetry_Int_Tables_number 1

loop_
_symmetry_equiv_pos_as_xyz
'x,y,z'

loop_
_atom_site_label
_atom_site_type_symbol
_atom_site_fract_x
_atom_site_fract_y
_atom_site_fract_z
C11	C1	0.788400	0.890520	0.192290
C21	C2	0.913100	0.923500	0.196150
H11	H1	0.932300	0.967300	0.199800
C31	C3	0.008600	0.891470	0.194540
C41	C4	0.981700	0.826090	0.190310
H21	H2	0.046600	0.804700	0.190100
C51	C5	0.856500	0.793130	0.186380
C61	C6	0.760200	0.826640	0.188490
H31	H3	0.677000	0.805100	0.187300
C71	C7	0.677700	0.921990	0.194160
C81	C8	0.132400	0.926360	0.189590
C91	C9	0.855300	0.625690	0.198600
H41	H4	0.902100	0.604500	0.217500
C101	C10	0.889400	0.690960	0.209300
H51	H5	0.956000	0.713300	0.235400
C111	C11	0.822500	0.722830	0.180300
C121	C12	0.721300	0.686880	0.142530
H61	H6	0.674400	0.707100	0.122800
C131	C13	0.691200	0.623640	0.134520
H71	H7	0.622900	0.600700	0.109300
C141	C14	0.329300	0.494300	0.149070
C151	C15	0.356200	0.558280	0.154200
H81	H8	0.437600	0.579500	0.152800
C161	C16	0.263700	0.593810	0.161580
C171	C17	0.142100	0.560740	0.164270
H91	H9	0.080400	0.582800	0.170500
C181	C18	0.112800	0.493020	0.157500
C191	C19	0.201700	0.459600	0.148200
H101	H10	0.180500	0.415500	0.141500
C201	C20	0.403700	0.759750	0.149730
H111	H11	0.456100	0.779600	0.131500
C211	C21	0.375200	0.692880	0.142960
H121	H12	0.409700	0.668500	0.120800
C221	C22	0.292400	0.663500	0.170680
C231	C23	0.252400	0.700280	0.204430
H131	H13	0.204600	0.682100	0.224700
C241	C24	0.281500	0.765850	0.209610
H141	H14	0.248900	0.790100	0.232600
C251	C25	0.432600	0.461980	0.138840
C261	C26	0.975100	0.462320	0.155130
C271	C27	0.254000	0.871560	0.036860
C281	C28	0.288200	0.817030	0.014280
H151	H15	0.345900	0.800000	0.032400
C291	C29	0.236300	0.788110	0.964760
C301	C30	0.145400	0.814470	0.939090
H161	H16	0.107500	0.795000	0.906500
C311	C31	0.111000	0.867730	0.960450
C321	C32	0.173000	0.898580	0.009100
H171	H17	0.159300	0.937600	0.022700
C331	C33	0.815900	0.877610	0.875280
H181	H18	0.743700	0.849300	0.854900
C341	C34	0.903600	0.854400	0.901640
H191	H19	0.888900	0.810800	0.898900
C351	C35	0.014300	0.893100	0.932510
C361	C36	0.033700	0.960980	0.933080
H201	H20	0.108200	0.990400	0.950300
C371	C37	0.936000	0.978000	0.906860
H211	H21	0.943800	0.021300	0.909500
C381	C38	0.307000	0.903780	0.090040
C391	C39	0.267800	0.731560	0.937400
C401	C40	0.299500	0.150410	0.290760
C411	C41	0.231600	0.183710	0.265870
H221	H22	0.225300	0.177900	0.232100
C421	C42	0.171100	0.226150	0.288970
C431	C43	0.189700	0.237850	0.339690
H231	H23	0.151300	0.267000	0.355700
C441	C44	0.264500	0.207230	0.367730
C451	C45	0.316600	0.161440	0.342330
H241	H24	0.362600	0.138300	0.359500
C461	C46	0.016900	0.296040	0.189470
H251	H25	0.030100	0.304800	0.159600
C471	C47	0.103700	0.269150	0.215740
H261	H26	0.172000	0.259100	0.203100
C481	C48	0.085900	0.257880	0.260550
C491	C49	0.983200	0.275630	0.279130
H271	H27	0.970600	0.270800	0.310000
C501	C50	0.902600	0.300390	0.249700
H281	H28	0.834400	0.311400	0.261900
C511	C51	0.360200	0.105180	0.261790
C521	C52	0.281800	0.225430	0.421970
C531	C53	0.732800	0.199960	0.529560
C541	C54	0.708000	0.136440	0.525980
H291	H29	0.627400	0.115100	0.528200
C551	C55	0.800800	0.101860	0.518970
C561	C56	0.923700	0.135680	0.517130
H301	H30	0.986100	0.113500	0.512500
C571	C57	0.954200	0.201420	0.522090
C581	C58	0.858600	0.236750	0.528860
H311	H31	0.876400	0.280600	0.532600
C591	C59	0.659400	0.934140	0.527320
H321	H32	0.606300	0.913900	0.545100
C601	C60	0.689300	0.000430	0.535950
H331	H33	0.655900	0.024000	0.559000
C611	C61	0.768400	0.030210	0.509950
C621	C62	0.819700	0.994900	0.475730
H341	H34	0.876100	0.015500	0.459300
C631	C63	0.786800	0.929120	0.466130
H351	H35	0.817300	0.905600	0.442000
C641	C64	0.626500	0.233740	0.533540
C651	C65	0.084700	0.233230	0.519400
C661	C66	0.262300	0.465490	0.627640
C671	C67	0.282500	0.479090	0.678050
H361	H36	0.333000	0.458200	0.695800
C681	C68	0.227900	0.524100	0.703090
C691	C69	0.153000	0.554040	0.675520
H371	H37	0.119500	0.585200	0.691800
C701	C70	0.125200	0.539230	0.623400
C711	C71	0.186300	0.497110	0.600130
H381	H38	0.177300	0.489600	0.566200
C721	C72	0.850300	0.612710	0.586940
H391	H39	0.784500	0.625400	0.599900
C731	C73	0.932600	0.584680	0.614720
H401	H40	0.918700	0.576800	0.644800
C741	C74	0.036500	0.568790	0.596090
C751	C75	0.051800	0.580390	0.550040
H411	H41	0.118300	0.569700	0.536500
C761	C76	0.965100	0.608350	0.524900
H421	H42	0.977500	0.618100	0.495200
C771	C77	0.316600	0.417510	0.599090
C781	C78	0.249800	0.542430	0.757350
C791	C79	0.165900	0.476500	0.936240
H431	H43	0.099200	0.454800	0.910000
C801	C80	0.151200	0.475970	0.984410
H441	H44	0.075200	0.453900	0.990200
C811	C81	0.251400	0.508770	0.023560
H451	H45	0.242800	0.508600	0.055700
C821	C82	0.365800	0.542180	0.014330
H461	H46	0.432800	0.564500	0.040300
C831	C83	0.378000	0.541550	0.966260
H471	H47	0.453700	0.563200	0.960100
N11	N1	0.758600	0.591340	0.162550
N21	N2	0.353600	0.795550	0.183360
N31	N3	0.829300	0.939230	0.877490
N41	N4	0.913100	0.309850	0.206470
N51	N5	0.707400	0.898320	0.492960
N61	N6	0.864200	0.621570	0.542630
N71	N7	0.278700	0.509010	0.927560
Ni11	Ni1	0.399040	0.893030	0.192190
Ni21	Ni2	0.311820	0.026890	0.161410
Ni31	Ni3	0.343700	0.200960	0.522020
Ni41	Ni4	0.265860	0.339150	0.497640
Ni51	Ni5	0.211970	0.650380	0.834890
Ni61	Ni6	0.286980	0.509000	0.854530
O11	O1	0.593400	0.895190	0.212520
O21	O2	0.679500	0.972660	0.179580
O31	O3	0.172400	0.984000	0.187780
O41	O4	0.220400	0.889540	0.195640
O51	O5	0.529600	0.493400	0.131390
O61	O6	0.419500	0.402670	0.140910
O71	O7	0.947200	0.406260	0.151430
O81	O8	0.900900	0.498410	0.161190
O91	O9	0.278300	0.955950	0.102620
O101	O10	0.367200	0.876430	0.116890
O111	O11	0.336600	0.701990	0.958660
O121	O12	0.214700	0.716440	0.892470
O131	O13	0.341200	0.102270	0.216670
O141	O14	0.410900	0.066950	0.283050
O151	O15	0.342700	0.196840	0.447840
O161	O16	0.238100	0.270340	0.437740
O171	O17	0.524300	0.195600	0.533780
O181	O18	0.642600	0.290760	0.532880
O191	O19	0.156700	0.196050	0.513000
O201	O20	0.119000	0.293130	0.523400
O211	O21	0.300800	0.416410	0.553060
O221	O22	0.372200	0.384040	0.618920
O231	O23	0.295800	0.508190	0.782730
O241	O24	0.211100	0.589800	0.772340
O251	O25	0.454900	0.994170	0.203960
H481	H48	0.525900	0.005200	0.195700
H491	H49	0.463800	0.010800	0.234200
O261	O26	0.400400	0.302180	0.540000
H501	H50	0.473600	0.314200	0.533700
H511	H51	0.405500	0.316000	0.570500
O271	O27	0.347600	0.612470	0.876190
H521	H52	0.351200	0.624900	0.906700
H531	H53	0.421200	0.625200	0.870500
C841	C84	0.211600	0.109480	0.807710
C851	C85	0.086900	0.076500	0.803850
H541	H54	0.067700	0.032700	0.800200
C861	C86	0.991400	0.108530	0.805460
C871	C87	0.018300	0.173910	0.809690
H551	H55	0.953400	0.195300	0.809900
C881	C88	0.143500	0.206870	0.813620
C891	C89	0.239800	0.173360	0.811510
H561	H56	0.323000	0.194900	0.812700
C901	C90	0.322300	0.078010	0.805840
C911	C91	0.867600	0.073640	0.810410
C921	C92	0.144700	0.374310	0.801400
H571	H57	0.097900	0.395500	0.782500
C931	C93	0.110600	0.309040	0.790700
H581	H58	0.044000	0.286700	0.764600
C941	C94	0.177500	0.277170	0.819700
C951	C95	0.278700	0.313120	0.857470
H591	H59	0.325600	0.292900	0.877200
C961	C96	0.308800	0.376360	0.865480
H601	H60	0.377100	0.399300	0.890700
C971	C97	0.670700	0.505700	0.850930
C981	C98	0.643800	0.441720	0.845800
H611	H61	0.562400	0.420500	0.847200
C991	C99	0.736300	0.406190	0.838420
C1001	C100	0.857900	0.439260	0.835730
H621	H62	0.919600	0.417200	0.829500
C1011	C101	0.887200	0.506980	0.842500
C1021	C102	0.798300	0.540400	0.851800
H631	H63	0.819500	0.584500	0.858500
C1031	C103	0.596300	0.240250	0.850270
H641	H64	0.543900	0.220400	0.868500
C1041	C104	0.624800	0.307120	0.857040
H651	H65	0.590300	0.331500	0.879200
C1051	C105	0.707600	0.336500	0.829320
C1061	C106	0.747600	0.299720	0.795570
H661	H66	0.795400	0.317900	0.775300
C1071	C107	0.718500	0.234150	0.790390
H671	H67	0.751100	0.209900	0.767400
C1081	C108	0.567400	0.538020	0.861160
C1091	C109	0.024900	0.537680	0.844870
C1101	C110	0.746000	0.128440	0.963140
C1111	C111	0.711800	0.182970	0.985720
H681	H68	0.654100	0.200000	0.967600
C1121	C112	0.763700	0.211890	0.035240
C1131	C113	0.854600	0.185530	0.060910
H691	H69	0.892500	0.205000	0.093500
C1141	C114	0.889000	0.132270	0.039550
C1151	C115	0.827000	0.101420	0.990900
H701	H70	0.840700	0.062400	0.977300
C1161	C116	0.184100	0.122390	0.124720
H711	H71	0.256300	0.150700	0.145100
C1171	C117	0.096400	0.145600	0.098360
H721	H72	0.111100	0.189200	0.101100
C1181	C118	0.985700	0.106900	0.067490
C1191	C119	0.966300	0.039020	0.066920
H731	H73	0.891800	0.009600	0.049700
C1201	C120	0.064000	0.022000	0.093140
H741	H74	0.056200	0.978700	0.090500
C1211	C121	0.693000	0.096220	0.909960
C1221	C122	0.732200	0.268440	0.062600
C1231	C123	0.700500	0.849590	0.709240
C1241	C124	0.768400	0.816290	0.734130
H751	H75	0.774700	0.822100	0.767900
C1251	C125	0.828900	0.773850	0.711030
C1261	C126	0.810300	0.762150	0.660310
H761	H76	0.848700	0.733000	0.644300
C1271	C127	0.735500	0.792770	0.632270
C1281	C128	0.683400	0.838560	0.657670
H771	H77	0.637400	0.861700	0.640500
C1291	C129	0.983100	0.703960	0.810530
H781	H78	0.969900	0.695200	0.840400
C1301	C130	0.896300	0.730850	0.784260
H791	H79	0.828000	0.740900	0.796900
C1311	C131	0.914100	0.742120	0.739450
C1321	C132	0.016800	0.724370	0.720870
H801	H80	0.029400	0.729200	0.690000
C1331	C133	0.097400	0.699610	0.750300
H811	H81	0.165600	0.688600	0.738100
C1341	C134	0.639800	0.894820	0.738210
C1351	C135	0.718200	0.774570	0.578030
C1361	C136	0.267200	0.800040	0.470440
C1371	C137	0.292000	0.863560	0.474020
H821	H82	0.372600	0.884900	0.471800
C1381	C138	0.199200	0.898140	0.481030
C1391	C139	0.076300	0.864320	0.482870
H831	H83	0.013900	0.886500	0.487500
C1401	C140	0.045800	0.798580	0.477910
C1411	C141	0.141400	0.763250	0.471140
H841	H84	0.123600	0.719400	0.467400
C1421	C142	0.340600	0.065860	0.472680
H851	H85	0.393700	0.086100	0.454900
C1431	C143	0.310700	0.999570	0.464050
H861	H86	0.344100	0.976000	0.441000
C1441	C144	0.231600	0.969790	0.490050
C1451	C145	0.180300	0.005100	0.524270
H871	H87	0.123900	0.984500	0.540700
C1461	C146	0.213200	0.070880	0.533870
H881	H88	0.182700	0.094400	0.558000
C1471	C147	0.373500	0.766260	0.466460
C1481	C148	0.915300	0.766770	0.480600
C1491	C149	0.737700	0.534510	0.372360
C1501	C150	0.717500	0.520910	0.321950
H891	H89	0.667000	0.541800	0.304200
C1511	C151	0.772100	0.475900	0.296910
C1521	C152	0.847000	0.445960	0.324480
H901	H90	0.880500	0.414800	0.308200
C1531	C153	0.874800	0.460770	0.376600
C1541	C154	0.813700	0.502890	0.399870
H911	H91	0.822700	0.510400	0.433800
C1551	C155	0.149700	0.387290	0.413060
H921	H92	0.215500	0.374600	0.400100
C1561	C156	0.067400	0.415320	0.385280
H931	H93	0.081300	0.423200	0.355200
C1571	C157	0.963500	0.431210	0.403910
C1581	C158	0.948200	0.419610	0.449960
H941	H94	0.881700	0.430300	0.463500
C1591	C159	0.034900	0.391650	0.475100
H951	H95	0.022500	0.381900	0.504800
C1601	C160	0.683400	0.582490	0.400910
C1611	C161	0.750200	0.457570	0.242650
C1621	C162	0.834100	0.523500	0.063760
H961	H96	0.900800	0.545200	0.090000
C1631	C163	0.848800	0.524030	0.015590
H971	H97	0.924800	0.546100	0.009800
C1641	C164	0.748600	0.491230	0.976440
H981	H98	0.757200	0.491400	0.944300
C1651	C165	0.634200	0.457820	0.985670
H991	H99	0.567200	0.435500	0.959700
C1661	C166	0.622000	0.458450	0.033740
H1001	H100	0.546300	0.436800	0.039900
N81	N8	0.241400	0.408660	0.837450
N91	N9	0.646400	0.204450	0.816640
N101	N10	0.170700	0.060770	0.122510
N111	N11	0.086900	0.690150	0.793530
N121	N12	0.292600	0.101680	0.507040
N131	N13	0.135800	0.378430	0.457370
N141	N14	0.721300	0.490990	0.072440
Ni71	Ni7	0.600960	0.106970	0.807810
Ni81	Ni8	0.688180	0.973110	0.838590
Ni91	Ni9	0.656300	0.799040	0.477980
Ni101	Ni10	0.734140	0.660850	0.502360
Ni111	Ni11	0.788030	0.349620	0.165110
Ni121	Ni12	0.713020	0.491000	0.145470
O281	O28	0.406600	0.104810	0.787480
O291	O29	0.320500	0.027340	0.820420
O301	O30	0.827600	0.016000	0.812220
O311	O31	0.779600	0.110460	0.804360
O321	O32	0.470400	0.506600	0.868610
O331	O33	0.580500	0.597330	0.859090
O341	O34	0.052800	0.593740	0.848570
O351	O35	0.099100	0.501590	0.838810
O361	O36	0.721700	0.044050	0.897380
O371	O37	0.632800	0.123570	0.883110
O381	O38	0.663400	0.298010	0.041340
O391	O39	0.785300	0.283560	0.107530
O401	O40	0.658800	0.897730	0.783330
O411	O41	0.589100	0.933050	0.716950
O421	O42	0.657300	0.803160	0.552160
O431	O43	0.761900	0.729660	0.562260
O441	O44	0.475700	0.804400	0.466220
O451	O45	0.357400	0.709240	0.467120
O461	O46	0.843300	0.803950	0.487000
O471	O47	0.881000	0.706870	0.476600
O481	O48	0.699200	0.583590	0.446940
O491	O49	0.627800	0.615960	0.381080
O501	O50	0.704200	0.491810	0.217270
O511	O51	0.788900	0.410200	0.227660
O521	O52	0.545100	0.005830	0.796040
H1011	H101	0.474100	0.994800	0.804300
H1021	H102	0.536200	0.989200	0.765800
O531	O53	0.599600	0.697820	0.460000
H1031	H103	0.526400	0.685800	0.466300
H1041	H104	0.594500	0.684000	0.429500
O541	O54	0.652400	0.387530	0.123810
H1051	H105	0.648800	0.375100	0.093300
H1061	H106	0.578800	0.374800	0.129500
