data_XOMDOU_clean_PM
_symmetry_space_group_name_H-M	'P1'
_cell_length_a	15.825000
_cell_length_b	15.825000
_cell_length_c	43.703000
_cell_angle_alpha	90.000000
_cell_angle_beta	90.000000
_cell_angle_gamma	120.000000
_symmetry_Int_Tables_number 1

loop_
_symmetry_equiv_pos_as_xyz
'x,y,z'

loop_
_atom_site_label
_atom_site_type_symbol
_atom_site_fract_x
_atom_site_fract_y
_atom_site_fract_z
C11	C1	0.587770	0.667650	0.035110
C21	C2	0.639500	0.651740	0.058930
H11	H1	0.607900	0.624900	0.077900
C31	C3	0.734370	0.674800	0.054790
H21	H2	0.767300	0.661400	0.070600
C41	C4	0.784560	0.719200	0.026890
H31	H3	0.850900	0.736100	0.024500
C51	C5	0.737900	0.737470	0.003520
H41	H4	0.771500	0.768800	0.985300
C61	C6	0.640030	0.708770	0.007380
C71	C7	0.496100	0.699650	0.988000
H51	H5	0.460900	0.708400	0.971900
C81	C8	0.451100	0.664880	0.016760
C91	C9	0.351990	0.650860	0.021490
C101	C10	0.303870	0.678160	0.997150
H61	H6	0.354000	0.736700	0.986200
H71	H7	0.257500	0.694900	0.006800
C111	C11	0.249400	0.596100	0.974220
H81	H8	0.294400	0.577200	0.965300
H91	H9	0.222500	0.618400	0.958000
H101	H10	0.196100	0.539800	0.984600
C121	C12	0.129200	0.370400	0.077190
H111	H11	0.184700	0.409000	0.090800
H121	H12	0.133500	0.314700	0.069200
H131	H13	0.068200	0.346700	0.088600
C131	C13	0.131250	0.434020	0.050540
H141	H14	0.182900	0.442700	0.036000
H151	H15	0.068000	0.399900	0.039600
C141	C14	0.149460	0.531430	0.060480
C151	C15	0.071750	0.541930	0.076090
C161	C16	0.976620	0.463890	0.077070
H161	H16	0.962500	0.403200	0.068400
C171	C17	0.925710	0.561400	0.103470
C181	C18	0.852590	0.575040	0.115220
H171	H17	0.786400	0.524100	0.114700
C191	C19	0.877660	0.663200	0.127510
H181	H18	0.828200	0.673300	0.136100
C201	C20	0.975700	0.740900	0.127960
H191	H19	0.991500	0.801700	0.137000
C211	C21	0.046010	0.727960	0.115590
H201	H20	0.111400	0.780600	0.115700
C221	C22	0.025170	0.637370	0.102320
N11	N1	0.586330	0.719860	0.983520
N21	N2	0.496020	0.647930	0.039760
N31	N3	0.312570	0.612220	0.047120
N41	N4	0.228640	0.611220	0.056700
N51	N5	0.096570	0.628560	0.089270
N61	N6	0.905370	0.472250	0.089820
O11	O1	0.815560	0.398570	0.090330
O21	O2	0.629520	0.749150	0.956750
C231	C23	0.332350	0.920120	0.701780
C241	C24	0.348260	0.987760	0.725600
H211	H21	0.375100	0.983000	0.744570
C251	C25	0.325200	0.059570	0.721460
H221	H22	0.338600	0.105900	0.737270
C261	C26	0.280800	0.065360	0.693560
H231	H23	0.263900	0.114800	0.691170
C271	C27	0.262530	0.000430	0.670190
H241	H24	0.231200	0.002700	0.651970
C281	C28	0.291230	0.931260	0.674050
C291	C29	0.300350	0.796450	0.654670
H251	H25	0.291600	0.752500	0.638570
C301	C30	0.335120	0.786220	0.683430
C311	C31	0.349140	0.701130	0.688160
C321	C32	0.321840	0.625710	0.663820
H261	H26	0.263300	0.617300	0.652870
H271	H27	0.305100	0.562600	0.673470
C331	C33	0.403900	0.653300	0.640890
H281	H28	0.422800	0.717200	0.631970
H291	H29	0.381600	0.604100	0.624670
H301	H30	0.460200	0.656300	0.651270
C341	C34	0.629600	0.758800	0.743860
H311	H31	0.591000	0.775700	0.757470
H321	H32	0.685300	0.818800	0.735870
H331	H33	0.653300	0.721500	0.755270
C351	C35	0.565980	0.697230	0.717210
H341	H34	0.557300	0.740200	0.702670
H351	H35	0.600100	0.668100	0.706270
C361	C36	0.468570	0.618030	0.727150
C371	C37	0.458070	0.529820	0.742760
C381	C38	0.536110	0.512730	0.743740
H361	H36	0.596800	0.559300	0.735070
C391	C39	0.438600	0.364310	0.770140
C401	C40	0.424960	0.277550	0.781890
H371	H37	0.475900	0.262300	0.781370
C411	C41	0.336800	0.214460	0.794180
H381	H38	0.326700	0.154900	0.802770
C421	C42	0.259100	0.234800	0.794630
H391	H39	0.198300	0.189800	0.803670
C431	C43	0.272040	0.318050	0.782260
H401	H40	0.219400	0.330800	0.782370
C441	C44	0.362630	0.387800	0.768990
N71	N7	0.280140	0.866470	0.650190
N81	N8	0.352070	0.848090	0.706430
N91	N9	0.387780	0.700350	0.713790
N101	N10	0.388780	0.617420	0.723370
N111	N11	0.371440	0.468010	0.755940
N121	N12	0.527750	0.433120	0.756490
O31	O3	0.601430	0.416990	0.757000
O41	O4	0.250850	0.880370	0.623420
C451	C45	0.079880	0.412230	0.368440
C461	C46	0.012240	0.360500	0.392260
H411	H41	0.017000	0.392100	0.411230
C471	C47	0.940430	0.265630	0.388120
H421	H42	0.894100	0.232700	0.403930
C481	C48	0.934640	0.215440	0.360220
H431	H43	0.885200	0.149100	0.357830
C491	C49	0.999570	0.262100	0.336850
H441	H44	0.997300	0.228500	0.318630
C501	C50	0.068740	0.359970	0.340710
C511	C51	0.203550	0.503900	0.321330
H451	H45	0.247500	0.539100	0.305230
C521	C52	0.213780	0.548900	0.350090
C531	C53	0.298870	0.648010	0.354820
C541	C54	0.374290	0.696130	0.330480
H461	H46	0.382700	0.646000	0.319530
H471	H47	0.437400	0.742500	0.340130
C551	C55	0.346700	0.750600	0.307550
H481	H48	0.282800	0.705600	0.298630
H491	H49	0.395900	0.777500	0.291330
H501	H50	0.343700	0.803900	0.317930
C561	C56	0.241200	0.870800	0.410520
H511	H51	0.224300	0.815300	0.424130
H521	H52	0.181200	0.866500	0.402530
H531	H53	0.278500	0.931800	0.421930
C571	C57	0.302770	0.868750	0.383870
H541	H54	0.259800	0.817100	0.369330
H551	H55	0.331900	0.932000	0.372930
C581	C58	0.381970	0.850540	0.393810
C591	C59	0.470180	0.928250	0.409420
C601	C60	0.487270	0.023380	0.410400
H561	H56	0.440700	0.037500	0.401730
C611	C61	0.635690	0.074290	0.436800
C621	C62	0.722450	0.147410	0.448550
H571	H57	0.737700	0.213600	0.448030
C631	C63	0.785540	0.122340	0.460840
H581	H58	0.845100	0.171800	0.469430
C641	C64	0.765200	0.024300	0.461290
H591	H59	0.810200	0.008500	0.470330
C651	C65	0.681950	0.953990	0.448920
H601	H60	0.669200	0.888600	0.449030
C661	C66	0.612200	0.974830	0.435650
N131	N13	0.133530	0.413670	0.316850
N141	N14	0.151910	0.503980	0.373090
N151	N15	0.299650	0.687430	0.380450
N161	N16	0.382580	0.771360	0.390030
N171	N17	0.531990	0.903430	0.422600
N181	N18	0.566880	0.094630	0.423150
O51	O5	0.583010	0.184440	0.423660
O61	O6	0.119630	0.370480	0.290080
C671	C67	0.332350	0.412230	0.131560
C681	C68	0.348260	0.360500	0.107740
H611	H61	0.375100	0.392100	0.088770
C691	C69	0.325200	0.265630	0.111880
H621	H62	0.338600	0.232700	0.096070
C701	C70	0.280800	0.215440	0.139780
H631	H63	0.263900	0.149100	0.142170
C711	C71	0.262530	0.262100	0.163150
H641	H64	0.231200	0.228500	0.181370
C721	C72	0.291230	0.359970	0.159290
C731	C73	0.300350	0.503900	0.178670
H651	H65	0.291600	0.539100	0.194770
C741	C74	0.335120	0.548900	0.149910
C751	C75	0.349140	0.648010	0.145180
C761	C76	0.321840	0.696130	0.169520
H661	H66	0.263300	0.646000	0.180470
H671	H67	0.305100	0.742500	0.159870
C771	C77	0.403900	0.750600	0.192450
H681	H68	0.422800	0.705600	0.201370
H691	H69	0.381600	0.777500	0.208670
H701	H70	0.460200	0.803900	0.182070
C781	C78	0.629600	0.870800	0.089480
H711	H71	0.591000	0.815300	0.075870
H721	H72	0.685300	0.866500	0.097470
H731	H73	0.653300	0.931800	0.078070
C791	C79	0.565980	0.868750	0.116130
H741	H74	0.557300	0.817100	0.130670
H751	H75	0.600100	0.932000	0.127070
C801	C80	0.468570	0.850540	0.106190
C811	C81	0.458070	0.928250	0.090580
C821	C82	0.536110	0.023380	0.089600
H761	H76	0.596800	0.037500	0.098270
C831	C83	0.438600	0.074290	0.063200
C841	C84	0.424960	0.147410	0.051450
H771	H77	0.475900	0.213600	0.051970
C851	C85	0.336800	0.122340	0.039160
H781	H78	0.326700	0.171800	0.030570
C861	C86	0.259100	0.024300	0.038710
H791	H79	0.198300	0.008500	0.029670
C871	C87	0.272040	0.953990	0.051080
H801	H80	0.219400	0.888600	0.050970
C881	C88	0.362630	0.974830	0.064350
N191	N19	0.280140	0.413670	0.183150
N201	N20	0.352070	0.503980	0.126910
N211	N21	0.387780	0.687430	0.119550
N221	N22	0.388780	0.771360	0.109970
N231	N23	0.371440	0.903430	0.077400
N241	N24	0.527750	0.094630	0.076850
O71	O7	0.601430	0.184440	0.076340
O81	O8	0.250850	0.370480	0.209920
C891	C89	0.079880	0.667650	0.464890
C901	C90	0.012240	0.651740	0.441070
H811	H81	0.017000	0.624900	0.422100
C911	C91	0.940430	0.674800	0.445210
H821	H82	0.894100	0.661400	0.429400
C921	C92	0.934640	0.719200	0.473110
H831	H83	0.885200	0.736100	0.475500
C931	C93	0.999570	0.737470	0.496480
H841	H84	0.997300	0.768800	0.514700
C941	C94	0.068740	0.708770	0.492620
C951	C95	0.203550	0.699650	0.512000
H851	H85	0.247500	0.708400	0.528100
C961	C96	0.213780	0.664880	0.483240
C971	C97	0.298870	0.650860	0.478510
C981	C98	0.374290	0.678160	0.502850
H861	H86	0.382700	0.736700	0.513800
H871	H87	0.437400	0.694900	0.493200
C991	C99	0.346700	0.596100	0.525780
H881	H88	0.282800	0.577200	0.534700
H891	H89	0.395900	0.618400	0.542000
H901	H90	0.343700	0.539800	0.515400
C1001	C100	0.241200	0.370400	0.422810
H911	H91	0.224300	0.409000	0.409200
H921	H92	0.181200	0.314700	0.430800
H931	H93	0.278500	0.346700	0.411400
C1011	C101	0.302770	0.434020	0.449460
H941	H94	0.259800	0.442700	0.464000
H951	H95	0.331900	0.399900	0.460400
C1021	C102	0.381970	0.531430	0.439520
C1031	C103	0.470180	0.541930	0.423910
C1041	C104	0.487270	0.463890	0.422930
H961	H96	0.440700	0.403200	0.431600
C1051	C105	0.635690	0.561400	0.396530
C1061	C106	0.722450	0.575040	0.384780
H971	H97	0.737700	0.524100	0.385300
C1071	C107	0.785540	0.663200	0.372490
H981	H98	0.845100	0.673300	0.363900
C1081	C108	0.765200	0.740900	0.372040
H991	H99	0.810200	0.801700	0.363000
C1091	C109	0.681950	0.727960	0.384410
H1001	H100	0.669200	0.780600	0.384300
C1101	C110	0.612200	0.637370	0.397680
N251	N25	0.133530	0.719860	0.516480
N261	N26	0.151910	0.647930	0.460240
N271	N27	0.299650	0.612220	0.452880
N281	N28	0.382580	0.611220	0.443300
N291	N29	0.531990	0.628560	0.410730
N301	N30	0.566880	0.472250	0.410180
O91	O9	0.583010	0.398570	0.409670
O101	O10	0.119630	0.749150	0.543250
C1111	C111	0.587770	0.920120	0.798220
C1121	C112	0.639500	0.987760	0.774400
H1011	H101	0.607900	0.983000	0.755430
C1131	C113	0.734370	0.059570	0.778540
H1021	H102	0.767300	0.105900	0.762730
C1141	C114	0.784560	0.065360	0.806440
H1031	H103	0.850900	0.114800	0.808830
C1151	C115	0.737900	0.000430	0.829810
H1041	H104	0.771500	0.002700	0.848030
C1161	C116	0.640030	0.931260	0.825950
C1171	C117	0.496100	0.796450	0.845330
H1051	H105	0.460900	0.752500	0.861430
C1181	C118	0.451100	0.786220	0.816570
C1191	C119	0.351990	0.701130	0.811840
C1201	C120	0.303870	0.625710	0.836180
H1061	H106	0.354000	0.617300	0.847130
H1071	H107	0.257500	0.562600	0.826530
C1211	C121	0.249400	0.653300	0.859110
H1081	H108	0.294400	0.717200	0.868030
H1091	H109	0.222500	0.604100	0.875330
H1101	H110	0.196100	0.656300	0.848730
C1221	C122	0.129200	0.758800	0.756140
H1111	H111	0.184700	0.775700	0.742530
H1121	H112	0.133500	0.818800	0.764130
H1131	H113	0.068200	0.721500	0.744730
C1231	C123	0.131250	0.697230	0.782790
H1141	H114	0.182900	0.740200	0.797330
H1151	H115	0.068000	0.668100	0.793730
C1241	C124	0.149460	0.618030	0.772850
C1251	C125	0.071750	0.529820	0.757240
C1261	C126	0.976620	0.512730	0.756260
H1161	H116	0.962500	0.559300	0.764930
C1271	C127	0.925710	0.364310	0.729860
C1281	C128	0.852590	0.277550	0.718110
H1171	H117	0.786400	0.262300	0.718630
C1291	C129	0.877660	0.214460	0.705820
H1181	H118	0.828200	0.154900	0.697230
C1301	C130	0.975700	0.234800	0.705370
H1191	H119	0.991500	0.189800	0.696330
C1311	C131	0.046010	0.318050	0.717740
H1201	H120	0.111400	0.330800	0.717630
C1321	C132	0.025170	0.387800	0.731010
N311	N31	0.586330	0.866470	0.849810
N321	N32	0.496020	0.848090	0.793570
N331	N33	0.312570	0.700350	0.786210
N341	N34	0.228640	0.617420	0.776630
N351	N35	0.096570	0.468010	0.744060
N361	N36	0.905370	0.433120	0.743510
O111	O11	0.815560	0.416990	0.743000
O121	O12	0.629520	0.880370	0.876580
Ag11	Ag1	0.413160	0.586840	0.083330
Ag21	Ag2	0.247570	0.752430	0.083330
Ag31	Ag3	0.413160	0.826330	0.750000
Ag41	Ag4	0.247570	0.495150	0.750000
Ag51	Ag5	0.173670	0.586840	0.416670
Ag61	Ag6	0.504850	0.752430	0.416670
Ag71	Ag7	0.546260	0.773130	0.916670
Ag81	Ag8	0.226870	0.773130	0.583330
Ag91	Ag9	0.226870	0.453740	0.250000
C1331	C133	0.412230	0.332350	0.535110
C1341	C134	0.360500	0.348260	0.558930
H1211	H121	0.392100	0.375100	0.577900
C1351	C135	0.265630	0.325200	0.554790
H1221	H122	0.232700	0.338600	0.570600
C1361	C136	0.215440	0.280800	0.526890
H1231	H123	0.149100	0.263900	0.524500
C1371	C137	0.262100	0.262530	0.503520
H1241	H124	0.228500	0.231200	0.485300
C1381	C138	0.359970	0.291230	0.507380
C1391	C139	0.503900	0.300350	0.488000
H1251	H125	0.539100	0.291600	0.471900
C1401	C140	0.548900	0.335120	0.516760
C1411	C141	0.648010	0.349140	0.521490
C1421	C142	0.696130	0.321840	0.497150
H1261	H126	0.646000	0.263300	0.486200
H1271	H127	0.742500	0.305100	0.506800
C1431	C143	0.750600	0.403900	0.474220
H1281	H128	0.705600	0.422800	0.465300
H1291	H129	0.777500	0.381600	0.458000
H1301	H130	0.803900	0.460200	0.484600
C1441	C144	0.870800	0.629600	0.577190
H1311	H131	0.815300	0.591000	0.590800
H1321	H132	0.866500	0.685300	0.569200
H1331	H133	0.931800	0.653300	0.588600
C1451	C145	0.868750	0.565980	0.550540
H1341	H134	0.817100	0.557300	0.536000
H1351	H135	0.932000	0.600100	0.539600
C1461	C146	0.850540	0.468570	0.560480
C1471	C147	0.928250	0.458070	0.576090
C1481	C148	0.023380	0.536110	0.577070
H1361	H136	0.037500	0.596800	0.568400
C1491	C149	0.074290	0.438600	0.603470
C1501	C150	0.147410	0.424960	0.615220
H1371	H137	0.213600	0.475900	0.614700
C1511	C151	0.122340	0.336800	0.627510
H1381	H138	0.171800	0.326700	0.636100
C1521	C152	0.024300	0.259100	0.627960
H1391	H139	0.008500	0.198300	0.637000
C1531	C153	0.953990	0.272040	0.615590
H1401	H140	0.888600	0.219400	0.615700
C1541	C154	0.974830	0.362630	0.602320
N371	N37	0.413670	0.280140	0.483520
N381	N38	0.503980	0.352070	0.539760
N391	N39	0.687430	0.387780	0.547120
N401	N40	0.771360	0.388780	0.556700
N411	N41	0.903430	0.371440	0.589270
N421	N42	0.094630	0.527750	0.589820
O131	O13	0.184440	0.601430	0.590330
O141	O14	0.370480	0.250850	0.456750
C1551	C155	0.667650	0.079880	0.201780
C1561	C156	0.651740	0.012240	0.225600
H1411	H141	0.624900	0.017000	0.244570
C1571	C157	0.674800	0.940430	0.221460
H1421	H142	0.661400	0.894100	0.237270
C1581	C158	0.719200	0.934640	0.193560
H1431	H143	0.736100	0.885200	0.191170
C1591	C159	0.737470	0.999570	0.170190
H1441	H144	0.768800	0.997300	0.151970
C1601	C160	0.708770	0.068740	0.174050
C1611	C161	0.699650	0.203550	0.154670
H1451	H145	0.708400	0.247500	0.138570
C1621	C162	0.664880	0.213780	0.183430
C1631	C163	0.650860	0.298870	0.188160
C1641	C164	0.678160	0.374290	0.163820
H1461	H146	0.736700	0.382700	0.152870
H1471	H147	0.694900	0.437400	0.173470
C1651	C165	0.596100	0.346700	0.140890
H1481	H148	0.577200	0.282800	0.131970
H1491	H149	0.618400	0.395900	0.124670
H1501	H150	0.539800	0.343700	0.151270
C1661	C166	0.370400	0.241200	0.243860
H1511	H151	0.409000	0.224300	0.257470
H1521	H152	0.314700	0.181200	0.235870
H1531	H153	0.346700	0.278500	0.255270
C1671	C167	0.434020	0.302770	0.217210
H1541	H154	0.442700	0.259800	0.202670
H1551	H155	0.399900	0.331900	0.206270
C1681	C168	0.531430	0.381970	0.227150
C1691	C169	0.541930	0.470180	0.242760
C1701	C170	0.463890	0.487270	0.243740
H1561	H156	0.403200	0.440700	0.235070
C1711	C171	0.561400	0.635690	0.270140
C1721	C172	0.575040	0.722450	0.281890
H1571	H157	0.524100	0.737700	0.281370
C1731	C173	0.663200	0.785540	0.294180
H1581	H158	0.673300	0.845100	0.302770
C1741	C174	0.740900	0.765200	0.294630
H1591	H159	0.801700	0.810200	0.303670
C1751	C175	0.727960	0.681950	0.282260
H1601	H160	0.780600	0.669200	0.282370
C1761	C176	0.637370	0.612200	0.268990
N431	N43	0.719860	0.133530	0.150190
N441	N44	0.647930	0.151910	0.206430
N451	N45	0.612220	0.299650	0.213790
N461	N46	0.611220	0.382580	0.223370
N471	N47	0.628560	0.531990	0.255940
N481	N48	0.472250	0.566880	0.256490
O151	O15	0.398570	0.583010	0.257000
O161	O16	0.749150	0.119630	0.123420
C1771	C177	0.920120	0.587770	0.868440
C1781	C178	0.987760	0.639500	0.892260
H1611	H161	0.983000	0.607900	0.911230
C1791	C179	0.059570	0.734370	0.888120
H1621	H162	0.105900	0.767300	0.903930
C1801	C180	0.065360	0.784560	0.860220
H1631	H163	0.114800	0.850900	0.857830
C1811	C181	0.000430	0.737900	0.836850
H1641	H164	0.002700	0.771500	0.818630
C1821	C182	0.931260	0.640030	0.840710
C1831	C183	0.796450	0.496100	0.821330
H1651	H165	0.752500	0.460900	0.805230
C1841	C184	0.786220	0.451100	0.850090
C1851	C185	0.701130	0.351990	0.854820
C1861	C186	0.625710	0.303870	0.830480
H1661	H166	0.617300	0.354000	0.819530
H1671	H167	0.562600	0.257500	0.840130
C1871	C187	0.653300	0.249400	0.807550
H1681	H168	0.717200	0.294400	0.798630
H1691	H169	0.604100	0.222500	0.791330
H1701	H170	0.656300	0.196100	0.817930
C1881	C188	0.758800	0.129200	0.910520
H1711	H171	0.775700	0.184700	0.924130
H1721	H172	0.818800	0.133500	0.902530
H1731	H173	0.721500	0.068200	0.921930
C1891	C189	0.697230	0.131250	0.883870
H1741	H174	0.740200	0.182900	0.869330
H1751	H175	0.668100	0.068000	0.872930
C1901	C190	0.618030	0.149460	0.893810
C1911	C191	0.529820	0.071750	0.909420
C1921	C192	0.512730	0.976620	0.910400
H1761	H176	0.559300	0.962500	0.901730
C1931	C193	0.364310	0.925710	0.936800
C1941	C194	0.277550	0.852590	0.948550
H1771	H177	0.262300	0.786400	0.948030
C1951	C195	0.214460	0.877660	0.960840
H1781	H178	0.154900	0.828200	0.969430
C1961	C196	0.234800	0.975700	0.961290
H1791	H179	0.189800	0.991500	0.970330
C1971	C197	0.318050	0.046010	0.948920
H1801	H180	0.330800	0.111400	0.949030
C1981	C198	0.387800	0.025170	0.935650
N491	N49	0.866470	0.586330	0.816850
N501	N50	0.848090	0.496020	0.873090
N511	N51	0.700350	0.312570	0.880450
N521	N52	0.617420	0.228640	0.890030
N531	N53	0.468010	0.096570	0.922600
N541	N54	0.433120	0.905370	0.923150
O171	O17	0.416990	0.815560	0.923660
O181	O18	0.880370	0.629520	0.790080
C1991	C199	0.667650	0.587770	0.631560
C2001	C200	0.651740	0.639500	0.607740
H1811	H181	0.624900	0.607900	0.588770
C2011	C201	0.674800	0.734370	0.611880
H1821	H182	0.661400	0.767300	0.596070
C2021	C202	0.719200	0.784560	0.639780
H1831	H183	0.736100	0.850900	0.642170
C2031	C203	0.737470	0.737900	0.663150
H1841	H184	0.768800	0.771500	0.681370
C2041	C204	0.708770	0.640030	0.659290
C2051	C205	0.699650	0.496100	0.678670
H1851	H185	0.708400	0.460900	0.694770
C2061	C206	0.664880	0.451100	0.649910
C2071	C207	0.650860	0.351990	0.645180
C2081	C208	0.678160	0.303870	0.669520
H1861	H186	0.736700	0.354000	0.680470
H1871	H187	0.694900	0.257500	0.659870
C2091	C209	0.596100	0.249400	0.692450
H1881	H188	0.577200	0.294400	0.701370
H1891	H189	0.618400	0.222500	0.708670
H1901	H190	0.539800	0.196100	0.682070
C2101	C210	0.370400	0.129200	0.589480
H1911	H191	0.409000	0.184700	0.575870
H1921	H192	0.314700	0.133500	0.597470
H1931	H193	0.346700	0.068200	0.578070
C2111	C211	0.434020	0.131250	0.616130
H1941	H194	0.442700	0.182900	0.630670
H1951	H195	0.399900	0.068000	0.627070
C2121	C212	0.531430	0.149460	0.606190
C2131	C213	0.541930	0.071750	0.590580
C2141	C214	0.463890	0.976620	0.589600
H1961	H196	0.403200	0.962500	0.598270
C2151	C215	0.561400	0.925710	0.563200
C2161	C216	0.575040	0.852590	0.551450
H1971	H197	0.524100	0.786400	0.551970
C2171	C217	0.663200	0.877660	0.539160
H1981	H198	0.673300	0.828200	0.530570
C2181	C218	0.740900	0.975700	0.538710
H1991	H199	0.801700	0.991500	0.529670
C2191	C219	0.727960	0.046010	0.551080
H2001	H200	0.780600	0.111400	0.550970
C2201	C220	0.637370	0.025170	0.564350
N551	N55	0.719860	0.586330	0.683150
N561	N56	0.647930	0.496020	0.626910
N571	N57	0.612220	0.312570	0.619550
N581	N58	0.611220	0.228640	0.609970
N591	N59	0.628560	0.096570	0.577400
N601	N60	0.472250	0.905370	0.576850
O191	O19	0.398570	0.815560	0.576340
O201	O20	0.749150	0.629520	0.709920
C2211	C221	0.920120	0.332350	0.964890
C2221	C222	0.987760	0.348260	0.941070
H2011	H201	0.983000	0.375100	0.922100
C2231	C223	0.059570	0.325200	0.945210
H2021	H202	0.105900	0.338600	0.929400
C2241	C224	0.065360	0.280800	0.973110
H2031	H203	0.114800	0.263900	0.975500
C2251	C225	0.000430	0.262530	0.996480
H2041	H204	0.002700	0.231200	0.014700
C2261	C226	0.931260	0.291230	0.992620
C2271	C227	0.796450	0.300350	0.012000
H2051	H205	0.752500	0.291600	0.028100
C2281	C228	0.786220	0.335120	0.983240
C2291	C229	0.701130	0.349140	0.978510
C2301	C230	0.625710	0.321840	0.002850
H2061	H206	0.617300	0.263300	0.013800
H2071	H207	0.562600	0.305100	0.993200
C2311	C231	0.653300	0.403900	0.025780
H2081	H208	0.717200	0.422800	0.034700
H2091	H209	0.604100	0.381600	0.042000
H2101	H210	0.656300	0.460200	0.015400
C2321	C232	0.758800	0.629600	0.922810
H2111	H211	0.775700	0.591000	0.909200
H2121	H212	0.818800	0.685300	0.930800
H2131	H213	0.721500	0.653300	0.911400
C2331	C233	0.697230	0.565980	0.949460
H2141	H214	0.740200	0.557300	0.964000
H2151	H215	0.668100	0.600100	0.960400
C2341	C234	0.618030	0.468570	0.939520
C2351	C235	0.529820	0.458070	0.923910
C2361	C236	0.512730	0.536110	0.922930
H2161	H216	0.559300	0.596800	0.931600
C2371	C237	0.364310	0.438600	0.896530
C2381	C238	0.277550	0.424960	0.884780
H2171	H217	0.262300	0.475900	0.885300
C2391	C239	0.214460	0.336800	0.872490
H2181	H218	0.154900	0.326700	0.863900
C2401	C240	0.234800	0.259100	0.872040
H2191	H219	0.189800	0.198300	0.863000
C2411	C241	0.318050	0.272040	0.884410
H2201	H220	0.330800	0.219400	0.884300
C2421	C242	0.387800	0.362630	0.897680
N611	N61	0.866470	0.280140	0.016480
N621	N62	0.848090	0.352070	0.960240
N631	N63	0.700350	0.387780	0.952880
N641	N64	0.617420	0.388780	0.943300
N651	N65	0.468010	0.371440	0.910730
N661	N66	0.433120	0.527750	0.910180
O211	O21	0.416990	0.601430	0.909670
O221	O22	0.880370	0.250850	0.043250
C2431	C243	0.412230	0.079880	0.298220
C2441	C244	0.360500	0.012240	0.274400
H2211	H221	0.392100	0.017000	0.255430
C2451	C245	0.265630	0.940430	0.278540
H2221	H222	0.232700	0.894100	0.262730
C2461	C246	0.215440	0.934640	0.306440
H2231	H223	0.149100	0.885200	0.308830
C2471	C247	0.262100	0.999570	0.329810
H2241	H224	0.228500	0.997300	0.348030
C2481	C248	0.359970	0.068740	0.325950
C2491	C249	0.503900	0.203550	0.345330
H2251	H225	0.539100	0.247500	0.361430
C2501	C250	0.548900	0.213780	0.316570
C2511	C251	0.648010	0.298870	0.311840
C2521	C252	0.696130	0.374290	0.336180
H2261	H226	0.646000	0.382700	0.347130
H2271	H227	0.742500	0.437400	0.326530
C2531	C253	0.750600	0.346700	0.359110
H2281	H228	0.705600	0.282800	0.368030
H2291	H229	0.777500	0.395900	0.375330
H2301	H230	0.803900	0.343700	0.348730
C2541	C254	0.870800	0.241200	0.256140
H2311	H231	0.815300	0.224300	0.242530
H2321	H232	0.866500	0.181200	0.264130
H2331	H233	0.931800	0.278500	0.244730
C2551	C255	0.868750	0.302770	0.282790
H2341	H234	0.817100	0.259800	0.297330
H2351	H235	0.932000	0.331900	0.293730
C2561	C256	0.850540	0.381970	0.272850
C2571	C257	0.928250	0.470180	0.257240
C2581	C258	0.023380	0.487270	0.256260
H2361	H236	0.037500	0.440700	0.264930
C2591	C259	0.074290	0.635690	0.229860
C2601	C260	0.147410	0.722450	0.218110
H2371	H237	0.213600	0.737700	0.218630
C2611	C261	0.122340	0.785540	0.205820
H2381	H238	0.171800	0.845100	0.197230
C2621	C262	0.024300	0.765200	0.205370
H2391	H239	0.008500	0.810200	0.196330
C2631	C263	0.953990	0.681950	0.217740
H2401	H240	0.888600	0.669200	0.217630
C2641	C264	0.974830	0.612200	0.231010
N671	N67	0.413670	0.133530	0.349810
N681	N68	0.503980	0.151910	0.293570
N691	N69	0.687430	0.299650	0.286210
N701	N70	0.771360	0.382580	0.276630
N711	N71	0.903430	0.531990	0.244060
N721	N72	0.094630	0.566880	0.243510
O231	O23	0.184440	0.583010	0.243000
O241	O24	0.370480	0.119630	0.376580
Ag101	Ag10	0.586840	0.413160	0.583330
Ag111	Ag11	0.752430	0.247570	0.583330
Ag121	Ag12	0.586840	0.173670	0.250000
Ag131	Ag13	0.752430	0.504850	0.250000
Ag141	Ag14	0.826330	0.413160	0.916670
Ag151	Ag15	0.495150	0.247570	0.916670
Ag161	Ag16	0.453740	0.226870	0.416670
Ag171	Ag17	0.773130	0.226870	0.083330
Ag181	Ag18	0.773130	0.546260	0.750000
