data_XONGUD_clean_PM
_symmetry_space_group_name_H-M	'P1'
_cell_length_a	16.158000
_cell_length_b	22.456100
_cell_length_c	26.480700
_cell_angle_alpha	74.619600
_cell_angle_beta	72.236400
_cell_angle_gamma	68.914100
_symmetry_Int_Tables_number 1

loop_
_symmetry_equiv_pos_as_xyz
'x,y,z'

loop_
_atom_site_label
_atom_site_type_symbol
_atom_site_fract_x
_atom_site_fract_y
_atom_site_fract_z
K11	K1	0.574800	0.084200	0.834600
K21	K2	0.747400	0.521500	0.879500
K31	K3	0.493600	0.415800	0.665400
K41	K4	0.148400	0.978500	0.620500
K51	K5	0.425200	0.915800	0.165400
K61	K6	0.252600	0.478500	0.120500
K71	K7	0.506400	0.584200	0.334600
K81	K8	0.851600	0.021500	0.379500
Cr11	Cr1	0.793910	0.966680	0.778900
Cr21	Cr2	0.979000	0.008700	0.747700
Cr31	Cr3	0.950120	0.889560	0.847800
Cr41	Cr4	0.539490	0.533320	0.721100
Cr51	Cr5	0.735400	0.491300	0.752300
Cr61	Cr6	0.687480	0.610440	0.652200
Cr71	Cr7	0.206090	0.033320	0.221100
Cr81	Cr8	0.021000	0.991300	0.252300
Cr91	Cr9	0.049880	0.110440	0.152200
Cr101	Cr10	0.460510	0.466680	0.278900
Cr111	Cr11	0.264600	0.508700	0.247700
Cr121	Cr12	0.312520	0.389560	0.347800
Co11	Co1	0.394620	0.789060	0.964100
Co21	Co2	0.147780	0.710940	0.535900
Co31	Co3	0.605380	0.210940	0.035900
Co41	Co4	0.852220	0.289060	0.464100
H11	H1	0.782300	0.199200	0.744000
H21	H2	0.700200	0.181300	0.787700
H31	H3	0.708300	0.184500	0.726500
H41	H4	0.232900	0.803800	0.767000
H51	H5	0.259300	0.866900	0.736700
H61	H6	0.218800	0.834300	0.708500
H71	H7	0.917800	0.726900	0.800500
H81	H8	0.888700	0.768000	0.747400
H91	H9	0.814100	0.756600	0.799800
H101	H10	0.012100	0.077300	0.874100
H111	H11	0.947600	0.048200	0.924200
H121	H12	0.052900	0.013300	0.911700
H131	H13	0.865800	0.972800	0.605600
H141	H14	0.972100	0.955100	0.594500
H151	H15	0.912000	0.028000	0.587600
H161	H16	0.703700	0.924600	0.981400
H171	H17	0.630700	0.929400	0.951600
H181	H18	0.648900	0.992500	0.954100
H191	H19	0.725500	0.300800	0.756000
H201	H20	0.669200	0.318700	0.712300
H211	H21	0.619300	0.315500	0.773500
H221	H22	0.803700	0.696200	0.733000
H231	H23	0.862900	0.633100	0.763300
H241	H24	0.761600	0.665700	0.791500
H251	H25	0.445200	0.773100	0.699500
H261	H26	0.404100	0.732000	0.752600
H271	H27	0.370500	0.743400	0.700200
H281	H28	0.963500	0.422700	0.625900
H291	H29	0.920000	0.451800	0.575800
H301	H30	0.977900	0.486700	0.588300
H311	H31	0.444200	0.527200	0.894400
H321	H32	0.521700	0.544900	0.905500
H331	H33	0.527600	0.472000	0.912400
H341	H34	0.609700	0.575400	0.518600
H351	H35	0.511700	0.570600	0.548400
H361	H36	0.595500	0.507500	0.545900
H371	H37	0.217700	0.800800	0.256000
H381	H38	0.299800	0.818700	0.212300
H391	H39	0.291700	0.815500	0.273500
H401	H40	0.767100	0.196200	0.233000
H411	H41	0.740700	0.133100	0.263300
H421	H42	0.781200	0.165700	0.291500
H431	H43	0.082200	0.273100	0.199500
H441	H44	0.111300	0.232000	0.252600
H451	H45	0.185900	0.243400	0.200200
H461	H46	0.987900	0.922700	0.125900
H471	H47	0.052400	0.951800	0.075800
H481	H48	0.947100	0.986700	0.088300
H491	H49	0.134200	0.027200	0.394400
H501	H50	0.027900	0.044900	0.405500
H511	H51	0.088000	0.972000	0.412400
H521	H52	0.296300	0.075400	0.018600
H531	H53	0.369300	0.070600	0.048400
H541	H54	0.351100	0.007500	0.045900
H551	H55	0.274500	0.699200	0.244000
H561	H56	0.330800	0.681300	0.287700
H571	H57	0.380700	0.684500	0.226500
H581	H58	0.196300	0.303800	0.267000
H591	H59	0.137100	0.366900	0.236700
H601	H60	0.238400	0.334300	0.208500
H611	H61	0.554800	0.226900	0.300500
H621	H62	0.595900	0.268000	0.247400
H631	H63	0.629500	0.256600	0.299800
H641	H64	0.036500	0.577300	0.374100
H651	H65	0.080000	0.548200	0.424200
H661	H66	0.022100	0.513300	0.411700
H671	H67	0.555800	0.472800	0.105600
H681	H68	0.478300	0.455100	0.094500
H691	H69	0.472400	0.528000	0.087600
H701	H70	0.390300	0.424600	0.481400
H711	H71	0.488300	0.429400	0.451600
H721	H72	0.404500	0.492500	0.454100
W11	W1	0.452520	0.933300	0.911980
W21	W2	0.492280	0.834480	0.043600
W31	W3	0.429230	0.702180	0.091720
W41	W4	0.286100	0.738150	0.894530
W51	W5	0.234910	0.944600	0.953620
W61	W6	0.565380	0.639940	0.965460
W71	W7	0.274620	0.845690	0.085870
W81	W8	0.629960	0.771880	0.917620
W91	W9	0.165050	0.795560	0.006060
W101	W10	0.354860	0.888020	0.842140
W111	W11	0.532360	0.726090	0.847990
W121	W12	0.320330	0.651610	0.011750
W131	W13	0.297800	0.566700	0.588020
W141	W14	0.370360	0.665520	0.456400
W151	W15	0.223130	0.797820	0.408280
W161	W16	0.918780	0.761850	0.605470
W171	W17	0.133130	0.555400	0.546380
W181	W18	0.170780	0.860060	0.534540
W191	W19	0.206180	0.654310	0.414130
W201	W20	0.319460	0.728120	0.582380
W211	W21	0.966670	0.704440	0.493940
W221	W22	0.085020	0.611980	0.657860
W231	W23	0.106440	0.773910	0.652010
W241	W24	0.983690	0.848390	0.488250
W251	W25	0.547480	0.066700	0.088020
W261	W26	0.507720	0.165520	0.956400
W271	W27	0.570770	0.297820	0.908280
W281	W28	0.713900	0.261850	0.105470
W291	W29	0.765090	0.055400	0.046380
W301	W30	0.434620	0.360060	0.034540
W311	W31	0.725380	0.154310	0.914130
W321	W32	0.370040	0.228120	0.082380
W331	W33	0.834950	0.204440	0.993940
W341	W34	0.645140	0.111980	0.157860
W351	W35	0.467640	0.273910	0.152010
W361	W36	0.679670	0.348390	0.988250
W371	W37	0.702200	0.433300	0.411980
W381	W38	0.629640	0.334480	0.543600
W391	W39	0.776870	0.202180	0.591720
W401	W40	0.081220	0.238150	0.394530
W411	W41	0.866870	0.444600	0.453620
W421	W42	0.829220	0.139940	0.465460
W431	W43	0.793820	0.345690	0.585870
W441	W44	0.680540	0.271880	0.417620
W451	W45	0.033330	0.295560	0.506060
W461	W46	0.914980	0.388020	0.342140
W471	W47	0.893560	0.226090	0.347990
W481	W48	0.016310	0.151610	0.511750
C11	C1	0.123500	0.883600	0.764800
C21	C2	0.906200	0.985800	0.667800
C31	C3	0.990000	0.998600	0.861400
C41	C4	0.741500	0.173200	0.753800
C51	C5	0.751000	0.940300	0.897700
C61	C6	0.217100	0.843600	0.742200
C71	C7	0.873400	0.763300	0.785900
C81	C8	0.869600	0.823300	0.801500
C91	C9	0.002000	0.037900	0.896100
C101	C10	0.796400	0.102600	0.758600
C111	C11	0.915200	0.985400	0.608200
C121	C12	0.676600	0.947400	0.951400
C131	C13	0.771900	0.616400	0.735200
C141	C14	0.559800	0.514200	0.832200
C151	C15	0.850000	0.501400	0.638600
C161	C16	0.668500	0.326800	0.746200
C171	C17	0.589000	0.559700	0.602300
C181	C18	0.802900	0.656400	0.757800
C191	C19	0.422600	0.736700	0.714100
C201	C20	0.494400	0.676700	0.698500
C211	C21	0.936000	0.462100	0.603900
C221	C22	0.657600	0.397400	0.741400
C231	C23	0.508800	0.514600	0.891800
C241	C24	0.575400	0.552600	0.548600
C251	C25	0.876500	0.116400	0.235200
C261	C26	0.093800	0.014200	0.332200
C271	C27	0.010000	0.001400	0.138600
C281	C28	0.258500	0.826800	0.246200
C291	C29	0.249000	0.059700	0.102300
C301	C30	0.782900	0.156400	0.257800
C311	C31	0.126600	0.236700	0.214100
C321	C32	0.130400	0.176700	0.198500
C331	C33	0.998000	0.962100	0.103900
C341	C34	0.203600	0.897400	0.241400
C351	C35	0.084800	0.014600	0.391800
C361	C36	0.323400	0.052600	0.048600
C371	C37	0.228100	0.383600	0.264800
C381	C38	0.440200	0.485800	0.167800
C391	C39	0.150000	0.498600	0.361400
C401	C40	0.331500	0.673200	0.253800
C411	C41	0.411000	0.440300	0.397700
C421	C42	0.197100	0.343600	0.242200
C431	C43	0.577400	0.263300	0.285900
C441	C44	0.505600	0.323300	0.301500
C451	C45	0.064000	0.537900	0.396100
C461	C46	0.342400	0.602600	0.258600
C471	C47	0.491200	0.485400	0.108200
C481	C48	0.424600	0.447400	0.451400
O11	O1	0.501700	0.993700	0.894300
O21	O2	0.752100	0.062000	0.771200
O31	O3	0.179700	0.875900	0.969100
O41	O4	0.305100	0.578600	0.043400
O51	O5	0.881400	0.088600	0.747600
O61	O6	0.554400	0.858300	0.897300
O71	O7	0.836900	0.972700	0.700300
O81	O8	0.321200	0.761000	0.127800
O91	O9	0.966000	0.000300	0.678100
O101	O10	0.255700	0.911500	0.024300
O111	O11	0.814100	0.874500	0.783100
O121	O12	0.925800	0.820700	0.826700
O131	O13	0.208600	0.807500	0.061300
O141	O14	0.633500	0.562200	0.979200
O151	O15	0.328900	0.985000	0.936000
O161	O16	0.295800	0.658400	0.942600
O171	O17	0.524300	0.664500	0.033500
O181	O18	0.635600	0.752900	0.850300
O191	O19	0.416300	0.712900	0.868700
O201	O20	0.429300	0.939300	0.843500
O211	O21	0.194600	0.704200	0.035600
O221	O22	0.458600	0.901700	0.986300
O231	O23	0.581500	0.789200	0.989800
O241	O24	0.247700	0.949200	0.877400
O251	O25	0.307400	0.753400	0.966800
O261	O26	0.506400	0.741200	0.931000
O271	O27	0.094300	0.937000	0.736800
O281	O28	0.292900	0.823100	0.864500
O291	O29	0.552200	0.864000	0.069000
O301	O30	0.975600	0.947200	0.879000
O311	O31	0.076700	0.862300	0.807700
O321	O32	0.166300	0.776100	0.938700
O331	O33	0.374700	0.870100	0.091300
O341	O34	0.464000	0.817200	0.832200
O351	O35	0.446700	0.630200	0.978400
O361	O36	0.398600	0.791100	0.031700
O371	O37	0.833400	0.905300	0.900300
O381	O38	0.059200	0.065600	0.700000
O391	O39	0.585200	0.643400	0.889000
O401	O40	0.662400	0.680200	0.946800
O411	O41	0.728100	0.965700	0.855100
O421	O42	0.363600	0.872000	0.924400
O431	O43	0.908200	0.954000	0.792600
O441	O44	0.353400	0.675100	0.065100
O451	O45	0.005000	0.025900	0.810900
O461	O46	0.501600	0.751600	0.094000
O471	O47	0.389700	0.506300	0.605700
O481	O48	0.585300	0.438000	0.728800
O491	O49	0.024700	0.624100	0.530900
O501	O50	0.927100	0.921400	0.456600
O511	O51	0.717600	0.411400	0.752400
O521	O52	0.310000	0.641700	0.602700
O531	O53	0.509900	0.527300	0.799700
O541	O54	0.210000	0.739000	0.372200
O551	O55	0.644400	0.499700	0.821900
O561	O56	0.191500	0.588500	0.475700
O571	O57	0.471700	0.625500	0.716900
O581	O58	0.573200	0.679300	0.673300
O591	O59	0.077400	0.692500	0.438700
O601	O60	0.174900	0.937800	0.520800
O611	O61	0.249900	0.515000	0.564000
O621	O62	0.896800	0.841600	0.557400
O631	O63	0.222300	0.835500	0.466500
O641	O64	0.238800	0.747100	0.649700
O651	O65	0.997900	0.787100	0.631300
O661	O66	0.212100	0.560700	0.656500
O671	O67	0.934400	0.795800	0.464400
O681	O68	0.346600	0.598300	0.513700
O691	O69	0.360500	0.710800	0.510200
O701	O70	0.074300	0.550800	0.622600
O711	O71	0.027600	0.746600	0.533200
O721	O72	0.178600	0.758800	0.569000
O731	O73	0.768100	0.563000	0.763200
O741	O74	0.980500	0.676900	0.635500
O751	O75	0.485200	0.636000	0.431000
O761	O76	0.801800	0.552800	0.621000
O771	O77	0.746700	0.637700	0.692300
O781	O78	0.881100	0.723900	0.561300
O791	O79	0.336100	0.629900	0.408700
O801	O80	0.113400	0.682800	0.667800
O811	O81	0.055300	0.869800	0.521600
O821	O82	0.221400	0.708900	0.468300
O831	O83	0.639000	0.594700	0.599700
O841	O84	0.824800	0.434400	0.800000
O851	O85	0.117600	0.856600	0.611000
O861	O86	0.289400	0.819800	0.553200
O871	O87	0.548900	0.534300	0.644900
O881	O88	0.160000	0.628000	0.575600
O891	O89	0.654800	0.546000	0.707400
O901	O90	0.093600	0.824900	0.434900
O911	O91	0.841800	0.474100	0.689100
O921	O92	0.347200	0.748400	0.406000
O931	O93	0.498300	0.006300	0.105700
O941	O94	0.247900	0.938000	0.228800
O951	O95	0.820300	0.124100	0.030900
O961	O96	0.694900	0.421400	0.956600
O971	O97	0.118600	0.911400	0.252400
O981	O98	0.445600	0.141700	0.102700
O991	O99	0.163100	0.027300	0.299700
O1001	O100	0.678800	0.239000	0.872200
O1011	O101	0.034000	0.999700	0.321900
O1021	O102	0.744300	0.088500	0.975700
O1031	O103	0.185900	0.125500	0.216900
O1041	O104	0.074200	0.179300	0.173300
O1051	O105	0.791400	0.192500	0.938700
O1061	O106	0.366500	0.437800	0.020800
O1071	O107	0.671100	0.015000	0.064000
O1081	O108	0.704200	0.341600	0.057400
O1091	O109	0.475700	0.335500	0.966500
O1101	O110	0.364400	0.247100	0.149700
O1111	O111	0.583700	0.287100	0.131300
O1121	O112	0.570700	0.060700	0.156500
O1131	O113	0.805400	0.295800	0.964400
O1141	O114	0.541400	0.098300	0.013700
O1151	O115	0.418500	0.210800	0.010200
O1161	O116	0.752300	0.050800	0.122600
O1171	O117	0.692600	0.246600	0.033200
O1181	O118	0.493600	0.258800	0.069000
O1191	O119	0.905700	0.063000	0.263200
O1201	O120	0.707100	0.176900	0.135500
O1211	O121	0.447800	0.136000	0.931000
O1221	O122	0.024400	0.052800	0.121000
O1231	O123	0.923300	0.137700	0.192300
O1241	O124	0.833700	0.223900	0.061300
O1251	O125	0.625300	0.129900	0.908700
O1261	O126	0.536000	0.182800	0.167800
O1271	O127	0.553300	0.369800	0.021600
O1281	O128	0.601400	0.208900	0.968300
O1291	O129	0.166600	0.094700	0.099700
O1301	O130	0.940800	0.934400	0.300000
O1311	O131	0.414800	0.356600	0.111000
O1321	O132	0.337600	0.319800	0.053200
O1331	O133	0.271900	0.034300	0.144900
O1341	O134	0.636400	0.128000	0.075600
O1351	O135	0.091800	0.046000	0.207400
O1361	O136	0.646600	0.324900	0.934900
O1371	O137	0.995000	0.974100	0.189100
O1381	O138	0.498400	0.248400	0.906000
O1391	O139	0.610300	0.493700	0.394300
O1401	O140	0.414700	0.562000	0.271200
O1411	O141	0.975300	0.375900	0.469100
O1421	O142	0.072900	0.078600	0.543400
O1431	O143	0.282400	0.588600	0.247600
O1441	O144	0.690000	0.358300	0.397300
O1451	O145	0.490100	0.472700	0.200300
O1461	O146	0.790000	0.261000	0.627800
O1471	O147	0.355600	0.500300	0.178100
O1481	O148	0.808500	0.411500	0.524300
O1491	O149	0.528300	0.374500	0.283100
O1501	O150	0.426800	0.320700	0.326700
O1511	O151	0.922600	0.307500	0.561300
O1521	O152	0.825100	0.062200	0.479200
O1531	O153	0.750100	0.485000	0.436000
O1541	O154	0.103200	0.158400	0.442600
O1551	O155	0.777700	0.164500	0.533500
O1561	O156	0.761200	0.252900	0.350300
O1571	O157	0.002100	0.212900	0.368700
O1581	O158	0.787900	0.439300	0.343500
O1591	O159	0.065600	0.204200	0.535600
O1601	O160	0.653400	0.401700	0.486300
O1611	O161	0.639500	0.289200	0.489800
O1621	O162	0.925700	0.449200	0.377400
O1631	O163	0.972400	0.253400	0.466800
O1641	O164	0.821400	0.241200	0.431000
O1651	O165	0.231900	0.437000	0.236800
O1661	O166	0.019500	0.323100	0.364500
O1671	O167	0.514800	0.364000	0.569000
O1681	O168	0.198200	0.447200	0.379000
O1691	O169	0.253300	0.362300	0.307700
O1701	O170	0.118900	0.276100	0.438700
O1711	O171	0.663900	0.370100	0.591300
O1721	O172	0.886600	0.317200	0.332200
O1731	O173	0.944700	0.130200	0.478400
O1741	O174	0.778600	0.291100	0.531700
O1751	O175	0.361000	0.405300	0.400300
O1761	O176	0.175200	0.565600	0.200000
O1771	O177	0.882400	0.143400	0.389000
O1781	O178	0.710600	0.180200	0.446800
O1791	O179	0.451100	0.465700	0.355100
O1801	O180	0.840000	0.372000	0.424400
O1811	O181	0.345200	0.454000	0.292600
O1821	O182	0.906400	0.175100	0.565100
O1831	O183	0.158200	0.525900	0.310900
O1841	O184	0.652800	0.251600	0.594000
