data_XOPKIX_clean_PM
_symmetry_space_group_name_H-M	'P1'
_cell_length_a	13.637600
_cell_length_b	13.637600
_cell_length_c	6.205400
_cell_angle_alpha	90.000000
_cell_angle_beta	90.000000
_cell_angle_gamma	90.000000
_symmetry_Int_Tables_number 1

loop_
_symmetry_equiv_pos_as_xyz
'x,y,z'

loop_
_atom_site_label
_atom_site_type_symbol
_atom_site_fract_x
_atom_site_fract_y
_atom_site_fract_z
S11	S1	0.472620	0.604310	0.243740
N11	N1	0.326300	0.652700	0.749800
C11	C1	0.380300	0.558400	0.084400
C21	C2	0.347400	0.469100	0.154600
H11	H1	0.297400	0.432300	0.085200
C31	C3	0.396600	0.438700	0.341700
H21	H2	0.382400	0.379300	0.415000
C41	C4	0.467100	0.503300	0.407800
C51	C5	0.349700	0.610300	0.898400
S21	S2	0.027380	0.895690	0.243740
N21	N2	0.173700	0.847300	0.749800
C61	C6	0.119700	0.941600	0.084400
C71	C7	0.152600	0.030900	0.154600
H31	H3	0.202600	0.067700	0.085200
C81	C8	0.103400	0.061300	0.341700
H41	H4	0.117600	0.120700	0.415000
C91	C9	0.032900	0.996700	0.407800
C101	C10	0.150300	0.889700	0.898400
S31	S3	0.895690	0.472620	0.243740
N31	N3	0.847300	0.326300	0.749800
C111	C11	0.941600	0.380300	0.084400
C121	C12	0.030900	0.347400	0.154600
H51	H5	0.067700	0.297400	0.085200
C131	C13	0.061300	0.396600	0.341700
H61	H6	0.120700	0.382400	0.415000
C141	C14	0.996700	0.467100	0.407800
C151	C15	0.889700	0.349700	0.898400
S41	S4	0.604310	0.027380	0.243740
N41	N4	0.652700	0.173700	0.749800
C161	C16	0.558400	0.119700	0.084400
C171	C17	0.469100	0.152600	0.154600
H71	H7	0.432300	0.202600	0.085200
C181	C18	0.438700	0.103400	0.341700
H81	H8	0.379300	0.117600	0.415000
C191	C19	0.503300	0.032900	0.407800
C201	C20	0.610300	0.150300	0.898400
S51	S5	0.527380	0.395690	0.756260
N51	N5	0.673700	0.347300	0.250200
C211	C21	0.619700	0.441600	0.915600
C221	C22	0.652600	0.530900	0.845400
H91	H9	0.702600	0.567700	0.914800
C231	C23	0.603400	0.561300	0.658300
H101	H10	0.617600	0.620700	0.585000
C241	C24	0.532900	0.496700	0.592200
C251	C25	0.650300	0.389700	0.101600
S61	S6	0.972620	0.104310	0.756260
N61	N6	0.826300	0.152700	0.250200
C261	C26	0.880300	0.058400	0.915600
C271	C27	0.847400	0.969100	0.845400
H111	H11	0.797400	0.932300	0.914800
C281	C28	0.896600	0.938700	0.658300
H121	H12	0.882400	0.879300	0.585000
C291	C29	0.967100	0.003300	0.592200
C301	C30	0.849700	0.110300	0.101600
S71	S7	0.104310	0.527380	0.756260
N71	N7	0.152700	0.673700	0.250200
C311	C31	0.058400	0.619700	0.915600
C321	C32	0.969100	0.652600	0.845400
H131	H13	0.932300	0.702600	0.914800
C331	C33	0.938700	0.603400	0.658300
H141	H14	0.879300	0.617600	0.585000
C341	C34	0.003300	0.532900	0.592200
C351	C35	0.110300	0.650300	0.101600
S81	S8	0.395690	0.972620	0.756260
N81	N8	0.347300	0.826300	0.250200
C361	C36	0.441600	0.880300	0.915600
C371	C37	0.530900	0.847400	0.845400
H151	H15	0.567700	0.797400	0.914800
C381	C38	0.561300	0.896600	0.658300
H161	H16	0.620700	0.882400	0.585000
C391	C39	0.496700	0.967100	0.592200
C401	C40	0.389700	0.849700	0.101600
Ag11	Ag1	0.250000	0.750000	0.500000
Ag21	Ag2	0.750000	0.250000	0.500000
