data_XOPLOE_clean_PM
_symmetry_space_group_name_H-M	'P1'
_cell_length_a	16.085300
_cell_length_b	17.416900
_cell_length_c	19.366700
_cell_angle_alpha	69.090000
_cell_angle_beta	65.463000
_cell_angle_gamma	62.498500
_symmetry_Int_Tables_number 1

loop_
_symmetry_equiv_pos_as_xyz
'x,y,z'

loop_
_atom_site_label
_atom_site_type_symbol
_atom_site_fract_x
_atom_site_fract_y
_atom_site_fract_z
Cu11	Cu1	0.516700	0.924280	0.049780
Cu21	Cu2	0.456800	0.055760	0.547560
Cu31	Cu3	0.490760	0.575720	0.450220
Cu41	Cu4	0.060120	0.444240	0.952440
Cu51	Cu5	0.483300	0.075720	0.950220
Cu61	Cu6	0.543200	0.944240	0.452440
Cu71	Cu7	0.509240	0.424280	0.549780
Cu81	Cu8	0.939880	0.555760	0.047560
H11	H1	0.817300	0.786100	0.922900
H21	H2	0.974100	0.733300	0.838900
H31	H3	0.928500	0.970800	0.694800
H41	H4	0.766700	0.025300	0.777300
H51	H5	0.213600	0.752900	0.613100
H61	H6	0.345700	0.801100	0.554100
H71	H7	0.197300	0.990100	0.682500
H81	H8	0.066500	0.941000	0.739800
H91	H9	0.618500	0.189100	0.017700
H101	H10	0.667200	0.247400	0.077800
H111	H11	0.629700	0.057200	0.271200
H121	H12	0.578400	0.001000	0.210400
H131	H13	0.838000	0.165700	0.109700
H141	H14	0.930700	0.254000	0.054800
H151	H15	0.744600	0.412800	0.206400
H161	H16	0.642000	0.331600	0.257800
H171	H17	0.526300	0.713900	0.577100
H181	H18	0.546300	0.766700	0.661100
H191	H19	0.594100	0.529200	0.805200
H201	H20	0.569300	0.474700	0.722700
H211	H21	0.579600	0.747100	0.886900
H221	H22	0.700900	0.698900	0.945900
H231	H23	0.869900	0.509900	0.817500
H241	H24	0.747300	0.559000	0.760200
H251	H25	0.825300	0.310900	0.482300
H261	H26	0.992400	0.252600	0.422200
H271	H27	0.958100	0.442800	0.228800
H281	H28	0.789800	0.499000	0.289600
H291	H29	0.113400	0.334300	0.390300
H301	H30	0.239500	0.246000	0.445200
H311	H31	0.363800	0.087200	0.293600
H321	H32	0.231400	0.168400	0.242200
H331	H33	0.182700	0.213900	0.077100
H341	H34	0.025900	0.266700	0.161100
H351	H35	0.071500	0.029200	0.305200
H361	H36	0.233300	0.974700	0.222700
H371	H37	0.786400	0.247100	0.386900
H381	H38	0.654300	0.198900	0.445900
H391	H39	0.802700	0.009900	0.317500
H401	H40	0.933500	0.059000	0.260200
H411	H41	0.381500	0.810900	0.982300
H421	H42	0.332800	0.752600	0.922200
H431	H43	0.370300	0.942800	0.728800
H441	H44	0.421600	0.999000	0.789600
H451	H45	0.162000	0.834300	0.890300
H461	H46	0.069300	0.746000	0.945200
H471	H47	0.255400	0.587200	0.793600
H481	H48	0.358000	0.668400	0.742200
H491	H49	0.473700	0.286100	0.422900
H501	H50	0.453700	0.233300	0.338900
H511	H51	0.405900	0.470800	0.194800
H521	H52	0.430700	0.525300	0.277300
H531	H53	0.420400	0.252900	0.113100
H541	H54	0.299100	0.301100	0.054100
H551	H55	0.130100	0.490100	0.182500
H561	H56	0.252700	0.441000	0.239800
H571	H57	0.174700	0.689100	0.517700
H581	H58	0.007600	0.747400	0.577800
H591	H59	0.041900	0.557200	0.771200
H601	H60	0.210200	0.501000	0.710400
H611	H61	0.886600	0.665700	0.609700
H621	H62	0.760500	0.754000	0.554800
H631	H63	0.636200	0.912800	0.706400
H641	H64	0.768600	0.831600	0.757800
C11	C1	0.672800	0.944800	0.909800
C21	C2	0.774900	0.911200	0.858800
C31	C3	0.838600	0.824300	0.876100
C41	C4	0.931900	0.792900	0.826500
C51	C5	0.964300	0.847400	0.759000
C61	C6	0.905000	0.933100	0.740900
C71	C7	0.808600	0.965900	0.790500
C81	C8	0.127300	0.845500	0.678500
C91	C9	0.210000	0.802300	0.626100
C101	C10	0.289000	0.830100	0.591700
C111	C11	0.284500	0.901200	0.612600
C121	C12	0.201000	0.942000	0.667600
C131	C13	0.123000	0.913400	0.701200
C141	C14	0.369700	0.933800	0.572600
C151	C15	0.592800	0.089200	0.108200
C161	C16	0.619800	0.162900	0.069700
C171	C17	0.648000	0.198000	0.105000
C181	C18	0.648100	0.159700	0.182500
C191	C19	0.625500	0.085100	0.220100
C201	C20	0.596300	0.051400	0.183400
C211	C21	0.729800	0.242300	0.187500
C221	C22	0.817200	0.217500	0.128100
C231	C23	0.872400	0.269000	0.096800
C241	C24	0.845400	0.343300	0.124700
C251	C25	0.761900	0.364200	0.185200
C261	C26	0.701400	0.315100	0.216900
C271	C27	0.904900	0.400500	0.084500
C281	C28	0.558600	0.054300	0.069300
C291	C29	0.527400	0.555200	0.590200
C301	C30	0.544900	0.588800	0.641200
C311	C31	0.539000	0.675700	0.623900
C321	C32	0.551300	0.707100	0.673500
C331	C33	0.570700	0.652600	0.741000
C341	C34	0.579000	0.566900	0.759100
C351	C35	0.565000	0.534100	0.709500
C361	C36	0.651300	0.654500	0.821500
C371	C37	0.638400	0.697700	0.873900
C381	C38	0.710800	0.669900	0.908300
C391	C39	0.798300	0.598800	0.887400
C401	C40	0.810600	0.558000	0.832400
C411	C41	0.737600	0.586600	0.798800
C421	C42	0.876100	0.566200	0.927400
C431	C43	0.790200	0.410800	0.391800
C441	C44	0.852400	0.337100	0.430300
C451	C45	0.951000	0.302000	0.395000
C461	C46	0.990300	0.340300	0.317500
C471	C47	0.930700	0.414900	0.279900
C481	C48	0.831100	0.448600	0.316600
C491	C49	0.159600	0.257700	0.312500
C501	C50	0.162800	0.282500	0.371900
C511	C51	0.238200	0.231000	0.403200
C521	C52	0.313400	0.156700	0.375300
C531	C53	0.311300	0.135800	0.314800
C541	C54	0.233400	0.184900	0.283100
C551	C55	0.389900	0.099500	0.415500
C561	C56	0.682200	0.445700	0.430700
C571	C57	0.327200	0.055200	0.090200
C581	C58	0.225100	0.088800	0.141200
C591	C59	0.161400	0.175700	0.123900
C601	C60	0.068100	0.207100	0.173500
C611	C61	0.035700	0.152600	0.241000
C621	C62	0.095000	0.066900	0.259100
C631	C63	0.191400	0.034100	0.209500
C641	C64	0.872700	0.154500	0.321500
C651	C65	0.790000	0.197700	0.373900
C661	C66	0.711000	0.169900	0.408300
C671	C67	0.715500	0.098800	0.387400
C681	C68	0.799000	0.058000	0.332400
C691	C69	0.877000	0.086600	0.298800
C701	C70	0.630300	0.066200	0.427400
C711	C71	0.407200	0.910800	0.891800
C721	C72	0.380200	0.837100	0.930300
C731	C73	0.352000	0.802000	0.895000
C741	C74	0.351900	0.840300	0.817500
C751	C75	0.374500	0.914900	0.779900
C761	C76	0.403700	0.948600	0.816600
C771	C77	0.270200	0.757700	0.812500
C781	C78	0.182800	0.782500	0.871900
C791	C79	0.127600	0.731000	0.903200
C801	C80	0.154600	0.656700	0.875300
C811	C81	0.238100	0.635800	0.814800
C821	C82	0.298600	0.684900	0.783100
C831	C83	0.095100	0.599500	0.915500
C841	C84	0.441400	0.945700	0.930700
C851	C85	0.472600	0.444800	0.409800
C861	C86	0.455100	0.411200	0.358800
C871	C87	0.461000	0.324300	0.376100
C881	C88	0.448700	0.292900	0.326500
C891	C89	0.429300	0.347400	0.259000
C901	C90	0.421000	0.433100	0.240900
C911	C91	0.435000	0.465900	0.290500
C921	C92	0.348700	0.345500	0.178500
C931	C93	0.361600	0.302300	0.126100
C941	C94	0.289200	0.330100	0.091700
C951	C95	0.201700	0.401200	0.112600
C961	C96	0.189400	0.442000	0.167600
C971	C97	0.262400	0.413400	0.201200
C981	C98	0.123900	0.433800	0.072600
C991	C99	0.209800	0.589200	0.608200
C1001	C100	0.147600	0.662900	0.569700
C1011	C101	0.049000	0.698000	0.605000
C1021	C102	0.009700	0.659700	0.682500
C1031	C103	0.069300	0.585100	0.720100
C1041	C104	0.168900	0.551400	0.683400
C1051	C105	0.840400	0.742300	0.687500
C1061	C106	0.837200	0.717500	0.628100
C1071	C107	0.761800	0.769000	0.596800
C1081	C108	0.686600	0.843300	0.624700
C1091	C109	0.688700	0.864200	0.685200
C1101	C110	0.766600	0.815100	0.716900
C1111	C111	0.610100	0.900500	0.584500
C1121	C112	0.317800	0.554300	0.569300
O11	O1	0.647200	0.894200	0.972600
O21	O2	0.619110	0.022480	0.887700
O31	O3	0.056100	0.808200	0.710600
O41	O4	0.364100	0.993200	0.598400
O51	O5	0.437700	0.898300	0.517300
O61	O6	0.558700	0.976400	0.098000
O71	O7	0.669400	0.193100	0.224500
O81	O8	0.979700	0.375800	0.028000
O91	O9	0.876100	0.469400	0.108600
O101	O10	0.532600	0.105100	0.010700
O111	O11	0.514000	0.605800	0.527400
O121	O12	0.529290	0.477520	0.612300
O131	O13	0.574900	0.691800	0.789400
O141	O14	0.955700	0.506800	0.901600
O151	O15	0.853300	0.601700	0.982700
O161	O16	0.633100	0.523600	0.402000
O171	O17	0.087000	0.306900	0.275500
O181	O18	0.383500	0.124200	0.472000
O191	O19	0.454100	0.030600	0.391400
O201	O20	0.648400	0.394900	0.489300
O211	O21	0.352800	0.105800	0.027400
O221	O22	0.380890	0.977520	0.112300
O231	O23	0.943900	0.191800	0.289400
O241	O24	0.635900	0.006800	0.401600
O251	O25	0.562300	0.101700	0.482700
O261	O26	0.441300	0.023600	0.902000
O271	O27	0.330600	0.806900	0.775500
O281	O28	0.020300	0.624200	0.972000
O291	O29	0.123900	0.530600	0.891400
O301	O30	0.467400	0.894900	0.989300
O311	O31	0.486000	0.394200	0.472600
O321	O32	0.470710	0.522480	0.387700
O331	O33	0.425100	0.308200	0.210600
O341	O34	0.044300	0.493200	0.098400
O351	O35	0.146700	0.398300	0.017300
O361	O36	0.366900	0.476400	0.598000
O371	O37	0.913000	0.693100	0.724500
O381	O38	0.616500	0.875800	0.528000
O391	O39	0.545900	0.969400	0.608600
O401	O40	0.351600	0.605100	0.510700
