data_XOQXIL_clean_PM
_symmetry_space_group_name_H-M	'P1'
_cell_length_a	9.678800
_cell_length_b	17.405800
_cell_length_c	31.411400
_cell_angle_alpha	77.001100
_cell_angle_beta	81.137400
_cell_angle_gamma	73.857100
_symmetry_Int_Tables_number 1

loop_
_symmetry_equiv_pos_as_xyz
'x,y,z'

loop_
_atom_site_label
_atom_site_type_symbol
_atom_site_fract_x
_atom_site_fract_y
_atom_site_fract_z
Zn11	Zn1	0.405380	0.447410	0.488210
Zn21	Zn2	0.671040	0.340280	0.537660
Zn31	Zn3	0.341000	0.052590	0.011790
Zn41	Zn4	0.548980	0.159720	0.962340
Zn51	Zn5	0.594620	0.552590	0.511790
Zn61	Zn6	0.328960	0.659720	0.462340
Zn71	Zn7	0.659000	0.947410	0.988210
Zn81	Zn8	0.451020	0.840280	0.037660
Si11	Si1	0.540340	0.990850	0.392150
Si21	Si2	0.923340	0.509150	0.107850
Si31	Si3	0.459660	0.009150	0.607850
Si41	Si4	0.076660	0.490850	0.892150
Si51	Si5	0.998800	0.250000	0.750000
Si61	Si6	0.001200	0.750000	0.250000
H11	H1	0.422000	0.166500	0.377900
H21	H2	0.425000	0.273700	0.410300
H31	H3	0.726900	0.119600	0.487400
H41	H4	0.711700	0.012100	0.457100
H51	H5	0.397900	0.860100	0.398700
H61	H6	0.170200	0.840000	0.420000
H71	H7	0.987400	0.938000	0.447400
H81	H8	0.035800	0.060300	0.454700
H91	H9	0.264900	0.079200	0.434800
H101	H10	0.664700	0.105400	0.319800
H111	H11	0.671800	0.140300	0.245500
H121	H12	0.602500	0.061100	0.206700
H131	H13	0.534000	0.943700	0.246100
H141	H14	0.483600	0.925700	0.321500
H151	H15	0.577300	0.851300	0.466700
H161	H16	0.756700	0.732500	0.487500
H171	H17	0.012400	0.798000	0.379200
H181	H18	0.828000	0.911600	0.356000
H191	H19	0.966900	0.374300	0.666900
H201	H20	0.115500	0.406400	0.604600
H211	H21	0.453900	0.239000	0.657600
H221	H22	0.303700	0.204700	0.719900
H231	H23	0.759600	0.240300	0.708700
H241	H24	0.687000	0.145100	0.683500
H251	H25	0.821300	0.013500	0.694100
H261	H26	0.024800	0.973900	0.732900
H271	H27	0.097800	0.072900	0.758100
H281	H28	0.966400	0.333500	0.122100
H291	H29	0.109000	0.226300	0.089700
H301	H30	0.333900	0.380400	0.012600
H311	H31	0.180900	0.487900	0.042900
H321	H32	0.656700	0.639900	0.101300
H331	H33	0.430200	0.660000	0.080000
H341	H34	0.372800	0.562000	0.052600
H351	H35	0.550800	0.439700	0.045300
H361	H36	0.778900	0.420800	0.065200
H371	H37	0.089900	0.394600	0.180200
H381	H38	0.057600	0.359700	0.254500
H391	H39	0.870300	0.438900	0.293300
H401	H40	0.723800	0.556300	0.253900
H411	H41	0.730800	0.574300	0.178500
H421	H42	0.895300	0.648700	0.033300
H431	H43	0.976700	0.767500	0.012500
H441	H44	0.189600	0.702000	0.120800
H451	H45	0.095600	0.588400	0.144000
H461	H46	0.008100	0.125700	0.833100
H471	H47	0.126500	0.093600	0.895400
H481	H48	0.350500	0.261000	0.842400
H491	H49	0.228300	0.295300	0.780100
H501	H50	0.708600	0.259700	0.791300
H511	H51	0.515600	0.354900	0.816500
H521	H52	0.528900	0.486500	0.805900
H531	H53	0.731600	0.526100	0.767100
H541	H54	0.928800	0.427100	0.741900
H551	H55	0.578000	0.833500	0.622100
H561	H56	0.575000	0.726300	0.589700
H571	H57	0.273100	0.880400	0.512600
H581	H58	0.288300	0.987900	0.542900
H591	H59	0.602100	0.139900	0.601300
H601	H60	0.829800	0.160000	0.580000
H611	H61	0.012600	0.062000	0.552600
H621	H62	0.964200	0.939700	0.545300
H631	H63	0.735100	0.920800	0.565200
H641	H64	0.335300	0.894600	0.680200
H651	H65	0.328200	0.859700	0.754500
H661	H66	0.397500	0.938900	0.793300
H671	H67	0.466000	0.056300	0.753900
H681	H68	0.516400	0.074300	0.678500
H691	H69	0.422700	0.148700	0.533300
H701	H70	0.243300	0.267500	0.512500
H711	H71	0.987600	0.202000	0.620800
H721	H72	0.172000	0.088400	0.644000
H731	H73	0.033100	0.625700	0.333100
H741	H74	0.884500	0.593600	0.395400
H751	H75	0.546100	0.761000	0.342400
H761	H76	0.696300	0.795300	0.280100
H771	H77	0.240400	0.759700	0.291300
H781	H78	0.313000	0.854900	0.316500
H791	H79	0.178700	0.986500	0.305900
H801	H80	0.975200	0.026100	0.267100
H811	H81	0.902200	0.927100	0.241900
H821	H82	0.033600	0.666500	0.877900
H831	H83	0.891000	0.773700	0.910300
H841	H84	0.666100	0.619600	0.987400
H851	H85	0.819100	0.512100	0.957100
H861	H86	0.343300	0.360100	0.898700
H871	H87	0.569800	0.340000	0.920000
H881	H88	0.627200	0.438000	0.947400
H891	H89	0.449200	0.560300	0.954700
H901	H90	0.221100	0.579200	0.934800
H911	H91	0.910100	0.605400	0.819800
H921	H92	0.942400	0.640300	0.745500
H931	H93	0.129700	0.561100	0.706700
H941	H94	0.276200	0.443700	0.746100
H951	H95	0.269200	0.425700	0.821500
H961	H96	0.104700	0.351300	0.966700
H971	H97	0.023300	0.232500	0.987500
H981	H98	0.810400	0.298000	0.879200
H991	H99	0.904400	0.411600	0.856000
H1001	H100	0.991900	0.874300	0.166900
H1011	H101	0.873500	0.906400	0.104600
H1021	H102	0.649500	0.739000	0.157600
H1031	H103	0.771700	0.704700	0.219900
H1041	H104	0.291400	0.740300	0.208700
H1051	H105	0.484400	0.645100	0.183500
H1061	H106	0.471100	0.513500	0.194100
H1071	H107	0.268400	0.473900	0.232900
H1081	H108	0.071200	0.572900	0.258100
C11	C1	0.564170	0.076660	0.414600
C21	C2	0.481800	0.156300	0.400900
C31	C3	0.484560	0.220780	0.419700
C41	C4	0.575710	0.206980	0.452600
C51	C5	0.662230	0.129140	0.465800
C61	C6	0.654010	0.065180	0.447200
C71	C7	0.572820	0.275400	0.474760
C81	C8	0.356850	0.973800	0.413300
C91	C9	0.324260	0.901480	0.410000
C101	C10	0.188900	0.889300	0.422700
C111	C11	0.081300	0.946600	0.439000
C121	C12	0.110100	0.019500	0.443300
C131	C13	0.246000	0.030600	0.431000
C141	C14	0.558900	0.017600	0.330400
C151	C15	0.624700	0.076100	0.304900
C161	C16	0.636300	0.094800	0.260600
C171	C17	0.597400	0.048300	0.237900
C181	C18	0.549800	0.981500	0.261300
C191	C19	0.525100	0.968900	0.306500
C201	C20	0.682810	0.894520	0.409060
C211	C21	0.665270	0.840160	0.448300
C221	C22	0.772940	0.770020	0.461300
C231	C23	0.902640	0.755600	0.435920
C241	C24	0.922840	0.808440	0.396880
C251	C25	0.813450	0.876610	0.383290
C261	C26	0.026040	0.684370	0.450750
C271	C27	0.117900	0.286500	0.701300
C281	C28	0.066430	0.346240	0.665500
C291	C29	0.155090	0.365650	0.628370
C301	C30	0.299340	0.327650	0.624870
C311	C31	0.354400	0.266900	0.659500
C321	C32	0.264300	0.246900	0.696700
C331	C33	0.397570	0.347780	0.585080
C341	C34	0.936200	0.167000	0.736600
C351	C35	0.815300	0.185300	0.713900
C361	C36	0.771400	0.129400	0.698600
C371	C37	0.849300	0.052900	0.705100
C381	C38	0.970900	0.029200	0.727800
C391	C39	0.013500	0.088300	0.743100
C401	C40	0.055430	0.423340	0.085400
C411	C41	0.039000	0.343700	0.099100
C421	C42	0.125040	0.279220	0.080300
C431	C43	0.235290	0.293020	0.047400
C441	C44	0.257170	0.370860	0.034200
C451	C45	0.166390	0.434820	0.052800
C461	C46	0.322980	0.224600	0.025240
C471	C47	0.743950	0.526200	0.086700
C481	C48	0.635740	0.598520	0.090000
C491	C49	0.500900	0.610700	0.077300
C501	C50	0.466900	0.553400	0.061000
C511	C51	0.572900	0.480500	0.056700
C521	C52	0.707600	0.469400	0.069000
C531	C53	0.906900	0.482400	0.169600
C541	C54	0.005700	0.423900	0.195100
C551	C55	0.991700	0.405200	0.239400
C561	C56	0.883600	0.451700	0.262100
C571	C57	0.792600	0.518500	0.238700
C581	C58	0.800500	0.531100	0.193500
C591	C59	0.986390	0.605480	0.090940
C601	C60	0.953730	0.659840	0.051700
C611	C61	0.004260	0.729980	0.038700
C621	C62	0.094160	0.744400	0.064080
C631	C63	0.128160	0.691560	0.103120
C641	C64	0.073350	0.623390	0.116710
C651	C65	0.161160	0.815630	0.049250
C661	C66	0.105700	0.213500	0.798700
C671	C67	0.078170	0.153760	0.834500
C681	C68	0.149110	0.134350	0.871630
C691	C69	0.251860	0.172350	0.875130
C701	C70	0.280800	0.233100	0.840500
C711	C71	0.207900	0.253100	0.803300
C721	C72	0.330430	0.152220	0.914920
C731	C73	0.839800	0.333000	0.763400
C741	C74	0.714500	0.314700	0.786100
C751	C75	0.599400	0.370600	0.801400
C761	C76	0.607300	0.447100	0.794900
C771	C77	0.727900	0.470800	0.772200
C781	C78	0.844900	0.411700	0.756900
C791	C79	0.435830	0.923340	0.585400
C801	C80	0.518200	0.843700	0.599100
C811	C81	0.515440	0.779220	0.580300
C821	C82	0.424290	0.793020	0.547400
C831	C83	0.337770	0.870860	0.534200
C841	C84	0.345990	0.934820	0.552800
C851	C85	0.427180	0.724600	0.525240
C861	C86	0.643150	0.026200	0.586700
C871	C87	0.675740	0.098520	0.590000
C881	C88	0.811100	0.110700	0.577300
C891	C89	0.918700	0.053400	0.561000
C901	C90	0.889900	0.980500	0.556700
C911	C91	0.754000	0.969400	0.569000
C921	C92	0.441100	0.982400	0.669600
C931	C93	0.375300	0.923900	0.695100
C941	C94	0.363700	0.905200	0.739400
C951	C95	0.402600	0.951700	0.762100
C961	C96	0.450200	0.018500	0.738700
C971	C97	0.474900	0.031100	0.693500
C981	C98	0.317190	0.105480	0.590940
C991	C99	0.334730	0.159840	0.551700
C1001	C100	0.227060	0.229980	0.538700
C1011	C101	0.097360	0.244400	0.564080
C1021	C102	0.077160	0.191560	0.603120
C1031	C103	0.186550	0.123390	0.616710
C1041	C104	0.973960	0.315630	0.549250
C1051	C105	0.882100	0.713500	0.298700
C1061	C106	0.933570	0.653760	0.334500
C1071	C107	0.844910	0.634350	0.371630
C1081	C108	0.700660	0.672350	0.375130
C1091	C109	0.645600	0.733100	0.340500
C1101	C110	0.735700	0.753100	0.303300
C1111	C111	0.602430	0.652220	0.414920
C1121	C112	0.063800	0.833000	0.263400
C1131	C113	0.184700	0.814700	0.286100
C1141	C114	0.228600	0.870600	0.301400
C1151	C115	0.150700	0.947100	0.294900
C1161	C116	0.029100	0.970800	0.272200
C1171	C117	0.986500	0.911700	0.256900
C1181	C118	0.944570	0.576660	0.914600
C1191	C119	0.961000	0.656300	0.900900
C1201	C120	0.874960	0.720780	0.919700
C1211	C121	0.764710	0.706980	0.952600
C1221	C122	0.742830	0.629140	0.965800
C1231	C123	0.833610	0.565180	0.947200
C1241	C124	0.677020	0.775400	0.974760
C1251	C125	0.256050	0.473800	0.913300
C1261	C126	0.364260	0.401480	0.910000
C1271	C127	0.499100	0.389300	0.922700
C1281	C128	0.533100	0.446600	0.939000
C1291	C129	0.427100	0.519500	0.943300
C1301	C130	0.292400	0.530600	0.931000
C1311	C131	0.093100	0.517600	0.830400
C1321	C132	0.994300	0.576100	0.804900
C1331	C133	0.008300	0.594800	0.760600
C1341	C134	0.116400	0.548300	0.737900
C1351	C135	0.207400	0.481500	0.761300
C1361	C136	0.199500	0.468900	0.806500
C1371	C137	0.013610	0.394520	0.909060
C1381	C138	0.046270	0.340160	0.948300
C1391	C139	0.995740	0.270020	0.961300
C1401	C140	0.905840	0.255600	0.935920
C1411	C141	0.871840	0.308440	0.896880
C1421	C142	0.926650	0.376610	0.883290
C1431	C143	0.838840	0.184370	0.950750
C1441	C144	0.894300	0.786500	0.201300
C1451	C145	0.921830	0.846240	0.165500
C1461	C146	0.850890	0.865650	0.128370
C1471	C147	0.748140	0.827650	0.124870
C1481	C148	0.719200	0.766900	0.159500
C1491	C149	0.792100	0.746900	0.196700
C1501	C150	0.669570	0.847780	0.085080
C1511	C151	0.160200	0.667000	0.236600
C1521	C152	0.285500	0.685300	0.213900
C1531	C153	0.400600	0.629400	0.198600
C1541	C154	0.392700	0.552900	0.205100
C1551	C155	0.272100	0.529200	0.227800
C1561	C156	0.155100	0.588300	0.243100
O11	O1	0.467600	0.337460	0.468740
O21	O2	0.672620	0.264200	0.498560
O31	O3	0.151650	0.694160	0.434940
O41	O4	0.003880	0.623030	0.476610
O51	O5	0.625480	0.440900	0.495540
O61	O6	0.531470	0.312020	0.586040
O71	O7	0.344010	0.399880	0.553100
O81	O8	0.273800	0.162540	0.031260
O91	O9	0.435380	0.235800	0.001440
O101	O10	0.280750	0.805840	0.065060
O111	O11	0.103520	0.876970	0.023390
O121	O12	0.561920	0.059100	0.004460
O131	O13	0.429530	0.187980	0.913960
O141	O14	0.296990	0.100120	0.946900
O151	O15	0.532400	0.662540	0.531260
O161	O16	0.327380	0.735800	0.501440
O171	O17	0.848350	0.305840	0.565060
O181	O18	0.996120	0.376970	0.523390
O191	O19	0.374520	0.559100	0.504460
O201	O20	0.468530	0.687980	0.413960
O211	O21	0.655990	0.600120	0.446900
O221	O22	0.726200	0.837460	0.968740
O231	O23	0.564620	0.764200	0.998560
O241	O24	0.719250	0.194160	0.934940
O251	O25	0.896480	0.123030	0.976610
O261	O26	0.438080	0.940900	0.995540
O271	O27	0.570470	0.812020	0.086040
O281	O28	0.703010	0.899880	0.053100
