data_XOSPOK_clean_PM
_symmetry_space_group_name_H-M	'P1'
_cell_length_a	9.984000
_cell_length_b	12.354000
_cell_length_c	12.834000
_cell_angle_alpha	88.320000
_cell_angle_beta	74.570000
_cell_angle_gamma	75.810000
_symmetry_Int_Tables_number 1

loop_
_symmetry_equiv_pos_as_xyz
'x,y,z'

loop_
_atom_site_label
_atom_site_type_symbol
_atom_site_fract_x
_atom_site_fract_y
_atom_site_fract_z
Zn11	Zn1	0.142290	0.738510	0.234760
Zn21	Zn2	0.932470	0.975990	0.380300
Zn31	Zn3	0.526420	0.738930	0.256530
Zn41	Zn4	0.853090	0.571950	0.400130
Zn51	Zn5	0.340020	0.610740	0.463780
Zn61	Zn6	0.458740	0.442270	0.150850
P11	P1	0.812000	0.795270	0.293610
P21	P2	0.220590	0.859460	0.414310
P31	P3	0.629590	0.492800	0.313050
P41	P4	0.199500	0.497680	0.349430
P51	P5	0.412040	0.685100	0.060670
O11	O1	0.108400	0.856400	0.349500
O21	O2	0.957200	0.740300	0.216300
O31	O3	0.272900	0.776900	0.105800
O41	O4	0.217200	0.612900	0.313800
O51	O5	0.802800	0.918100	0.321500
O61	O6	0.167800	0.971800	0.476300
O71	O7	0.694800	0.796500	0.237300
O81	O8	0.518200	0.607100	0.347000
O91	O9	0.528000	0.700400	0.112100
O101	O10	0.365500	0.852100	0.335800
O111	O11	0.790000	0.732000	0.400200
O121	O12	0.780200	0.513200	0.292000
O131	O13	0.048200	0.483300	0.364700
O141	O14	0.223400	0.764200	0.492300
O151	O15	0.239100	0.487200	0.460500
O161	O16	0.599100	0.415500	0.405300
O171	O17	0.619300	0.446300	0.208300
O181	O18	0.305500	0.404800	0.270900
O191	O19	0.376200	0.571800	0.082200
O201	O20	0.467000	0.696300	0.937900
Zn71	Zn7	0.857710	0.261490	0.765240
Zn81	Zn8	0.067530	0.024010	0.619700
Zn91	Zn9	0.473580	0.261070	0.743470
Zn101	Zn10	0.146910	0.428050	0.599870
Zn111	Zn11	0.659980	0.389260	0.536220
Zn121	Zn12	0.541260	0.557730	0.849150
P61	P6	0.188000	0.204730	0.706390
P71	P7	0.779410	0.140540	0.585690
P81	P8	0.370410	0.507200	0.686950
P91	P9	0.800500	0.502320	0.650570
P101	P10	0.587960	0.314900	0.939330
O211	O21	0.891600	0.143600	0.650500
O221	O22	0.042800	0.259700	0.783700
O231	O23	0.727100	0.223100	0.894200
O241	O24	0.782800	0.387100	0.686200
O251	O25	0.197200	0.081900	0.678500
O261	O26	0.832200	0.028200	0.523700
O271	O27	0.305200	0.203500	0.762700
O281	O28	0.481800	0.392900	0.653000
O291	O29	0.472000	0.299600	0.887900
O301	O30	0.634500	0.147900	0.664200
O311	O31	0.210000	0.268000	0.599800
O321	O32	0.219800	0.486800	0.708000
O331	O33	0.951800	0.516700	0.635300
O341	O34	0.776600	0.235800	0.507700
O351	O35	0.760900	0.512800	0.539500
O361	O36	0.400900	0.584500	0.594700
O371	O37	0.380700	0.553700	0.791700
O381	O38	0.694500	0.595200	0.729100
O391	O39	0.623800	0.428200	0.917800
O401	O40	0.533000	0.303700	0.062100
