data_XOSQUR_ion_b_PM
_symmetry_space_group_name_H-M	'P1'
_cell_length_a	15.284000
_cell_length_b	17.726000
_cell_length_c	5.188200
_cell_angle_alpha	90.000000
_cell_angle_beta	90.000000
_cell_angle_gamma	90.000000
_symmetry_Int_Tables_number 1

loop_
_symmetry_equiv_pos_as_xyz
'x,y,z'

loop_
_atom_site_label
_atom_site_type_symbol
_atom_site_fract_x
_atom_site_fract_y
_atom_site_fract_z
Zn11	Zn1	0.280640	0.803160	0.667600
Zn21	Zn2	0.106910	0.804640	0.264800
Zn31	Zn3	0.406510	0.751900	0.172600
Zn41	Zn4	0.266840	0.063550	0.350400
P51	P5	0.399520	0.655260	0.690000
P61	P6	0.280310	0.894760	0.173000
P71	P7	0.112100	0.706940	0.748800
O81	O8	0.305000	0.886000	0.888600
O91	O9	0.160100	0.771500	0.604100
O101	O10	0.324300	0.826000	0.322900
O111	O11	0.356500	0.725600	0.831300
O121	O12	0.121200	0.720500	0.035000
O131	O13	0.493800	0.649500	0.784000
O141	O14	0.182500	0.890900	0.213400
O151	O15	0.019700	0.705900	0.646000
O161	O16	0.388900	0.667100	0.398600
O171	O17	0.318200	0.968500	0.278100
O181	O18	0.353800	0.582500	0.770300
O191	O19	0.155700	0.632200	0.676000
O201	O20	0.262100	0.085500	0.729000
H221	H22	0.023700	0.035600	0.468300
C231	C23	0.069300	0.965700	0.731000
H241	H24	0.113400	0.944200	0.621700
H251	H25	0.044300	0.926900	0.837000
H261	H26	0.095100	0.003700	0.838600
Zn271	Zn27	0.719360	0.196840	0.667600
Zn281	Zn28	0.893090	0.195360	0.264800
Zn291	Zn29	0.593490	0.248100	0.172600
Zn301	Zn30	0.733160	0.936450	0.350400
P311	P31	0.600480	0.344740	0.690000
P321	P32	0.719690	0.105240	0.173000
P331	P33	0.887900	0.293060	0.748800
O341	O34	0.695000	0.114000	0.888600
O351	O35	0.839900	0.228500	0.604100
O361	O36	0.675700	0.174000	0.322900
O371	O37	0.643500	0.274400	0.831300
O381	O38	0.878800	0.279500	0.035000
O391	O39	0.506200	0.350500	0.784000
O401	O40	0.817500	0.109100	0.213400
O411	O41	0.980300	0.294100	0.646000
O421	O42	0.611100	0.332900	0.398600
O431	O43	0.681800	0.031500	0.278100
O441	O44	0.646200	0.417500	0.770300
O451	O45	0.844300	0.367800	0.676000
O461	O46	0.737900	0.914500	0.729000
H481	H48	0.976300	0.964400	0.468300
C491	C49	0.930700	0.034300	0.731000
H501	H50	0.886600	0.055800	0.621700
H511	H51	0.955700	0.073100	0.837000
H521	H52	0.904900	0.996300	0.838600
Zn531	Zn53	0.780640	0.696840	0.167600
Zn541	Zn54	0.606910	0.695360	0.764800
Zn551	Zn55	0.906510	0.748100	0.672600
Zn561	Zn56	0.766840	0.436450	0.850400
P571	P57	0.899520	0.844740	0.190000
P581	P58	0.780310	0.605240	0.673000
P591	P59	0.612100	0.793060	0.248800
O601	O60	0.805000	0.614000	0.388600
O611	O61	0.660100	0.728500	0.104100
O621	O62	0.824300	0.674000	0.822900
O631	O63	0.856500	0.774400	0.331300
O641	O64	0.621200	0.779500	0.535000
O651	O65	0.993800	0.850500	0.284000
O661	O66	0.682500	0.609100	0.713400
O671	O67	0.519700	0.794100	0.146000
O681	O68	0.888900	0.832900	0.898600
O691	O69	0.818200	0.531500	0.778100
O701	O70	0.853800	0.917500	0.270300
O711	O71	0.655700	0.867800	0.176000
O721	O72	0.762100	0.414500	0.229000
H741	H74	0.523700	0.464400	0.968300
C751	C75	0.569300	0.534300	0.231000
H761	H76	0.613400	0.555800	0.121700
H771	H77	0.544300	0.573100	0.337000
H781	H78	0.595100	0.496300	0.338600
Zn791	Zn79	0.219360	0.303160	0.167600
Zn801	Zn80	0.393090	0.304640	0.764800
Zn811	Zn81	0.093490	0.251900	0.672600
Zn821	Zn82	0.233160	0.563550	0.850400
P831	P83	0.100480	0.155260	0.190000
P841	P84	0.219690	0.394760	0.673000
P851	P85	0.387900	0.206940	0.248800
O861	O86	0.195000	0.386000	0.388600
O871	O87	0.339900	0.271500	0.104100
O881	O88	0.175700	0.326000	0.822900
O891	O89	0.143500	0.225600	0.331300
O901	O90	0.378800	0.220500	0.535000
O911	O91	0.006200	0.149500	0.284000
O921	O92	0.317500	0.390900	0.713400
O931	O93	0.480300	0.205900	0.146000
O941	O94	0.111100	0.167100	0.898600
O951	O95	0.181800	0.468500	0.778100
O961	O96	0.146200	0.082500	0.270300
O971	O97	0.344300	0.132200	0.176000
O981	O98	0.237900	0.585500	0.229000
H1001	H100	0.476300	0.535600	0.968300
C1011	C101	0.430700	0.465700	0.231000
H1021	H102	0.386600	0.444200	0.121700
H1031	H103	0.455700	0.426900	0.337000
H1041	H104	0.404900	0.503700	0.338600
N1051	N105	0.000000	0.000000	0.570000
N1061	N106	0.500000	0.500000	0.070000
