data_XOTZIR_clean_PM
_symmetry_space_group_name_H-M	'P1'
_cell_length_a	8.811000
_cell_length_b	10.951000
_cell_length_c	21.944000
_cell_angle_alpha	77.152000
_cell_angle_beta	87.703000
_cell_angle_gamma	78.251000
_symmetry_Int_Tables_number 1

loop_
_symmetry_equiv_pos_as_xyz
'x,y,z'

loop_
_atom_site_label
_atom_site_type_symbol
_atom_site_fract_x
_atom_site_fract_y
_atom_site_fract_z
Yb11	Yb1	0.286800	0.465800	0.495180
Yb21	Yb2	0.713200	0.534200	0.504820
H11	H1	0.937700	0.184200	0.984900
H21	H2	0.932200	0.791200	0.929900
H31	H3	0.313000	0.112700	0.960400
H41	H4	0.693900	0.538400	0.337300
H51	H5	0.062300	0.815800	0.015100
H61	H6	0.890700	0.934600	0.937600
H71	H7	0.612800	0.899700	0.373800
H81	H8	0.269700	0.257300	0.966200
H91	H9	0.404200	0.706000	0.789800
H101	H10	0.702600	0.112800	0.785500
H111	H11	0.429600	0.014100	0.138500
H121	H12	0.358400	0.986900	0.725800
H131	H13	0.067800	0.208800	0.070100
H141	H14	0.275800	0.600600	0.874300
H151	H15	0.730300	0.742700	0.033800
H161	H16	0.887600	0.854100	0.214500
H171	H17	0.740600	0.219900	0.684600
H181	H18	0.570400	0.985900	0.861500
H191	H19	0.387200	0.100300	0.626200
H201	H20	0.866800	0.902500	0.872100
H211	H21	0.259400	0.780100	0.315400
H221	H22	0.939600	0.506500	0.150500
H231	H23	0.441700	0.137100	0.046300
H241	H24	0.302800	0.924600	0.825300
H251	H25	0.595800	0.294000	0.210200
H261	H26	0.836400	0.778700	0.317800
H271	H27	0.133200	0.097500	0.127900
H281	H28	0.521000	0.716700	0.693700
H291	H29	0.327900	0.708400	0.140500
H301	H30	0.297400	0.887200	0.214500
H311	H31	0.112400	0.145900	0.785500
H321	H32	0.799500	0.509200	0.672900
H331	H33	0.251600	0.221600	0.901100
H341	H34	0.808200	0.556200	0.241900
H351	H35	0.306100	0.461600	0.662700
H361	H36	0.979600	0.179100	0.884500
H371	H37	0.246300	0.562100	0.220900
H381	H38	0.479000	0.283300	0.306300
H391	H39	0.697200	0.075400	0.174700
H401	H40	0.641600	0.013100	0.274200
H411	H41	0.748400	0.778400	0.098900
H421	H42	0.109300	0.065400	0.062400
H431	H43	0.191800	0.443800	0.758100
H441	H44	0.753700	0.437900	0.779100
H451	H45	0.020400	0.820900	0.115500
H461	H46	0.558300	0.862900	0.953700
H471	H47	0.724200	0.399400	0.125700
H481	H48	0.200500	0.490800	0.327100
H491	H49	0.687000	0.887300	0.039600
H501	H50	0.060400	0.493500	0.849500
H511	H51	0.163600	0.221300	0.682200
H521	H52	0.672100	0.291600	0.859500
C11	C1	0.193200	0.864300	0.939700
C21	C2	0.386000	0.651600	0.764400
C31	C3	0.363000	0.462000	0.088400
C41	C4	0.952000	0.780100	0.237200
C51	C5	0.068500	0.120600	0.090700
C61	C6	0.453000	0.103300	0.658300
C71	C7	0.637000	0.538000	0.911600
C81	C8	0.273200	0.795700	0.047900
C91	C9	0.313300	0.200300	0.939000
C101	C10	0.614000	0.348400	0.235600
C111	C11	0.547000	0.896700	0.341700
C121	C12	0.985000	0.371000	0.669200
C131	C13	0.076200	0.718600	0.207500
C141	C14	0.456900	0.854000	0.965800
C151	C15	0.923800	0.281400	0.792500
C161	C16	0.419000	0.741000	0.420400
C171	C17	0.756900	0.247400	0.885500
C181	C18	0.063000	0.517200	0.940800
C191	C19	0.659000	0.174700	0.692600
C201	C20	0.931500	0.879400	0.909300
C211	C21	0.435000	0.036800	0.718100
C221	C22	0.453000	0.660000	0.706800
C231	C23	0.992000	0.578000	0.402500
C241	C24	0.341000	0.825300	0.307400
C251	C25	0.655400	0.118600	0.078800
C261	C26	0.523600	0.039900	0.766700
C271	C27	0.841900	0.505200	0.009200
C281	C28	0.293800	0.567000	0.785500
C291	C29	0.904000	0.521300	0.948500
C301	C30	0.015000	0.629000	0.330800
C311	C31	0.895000	0.228400	0.859500
C321	C32	0.806800	0.135700	0.060300
C331	C33	0.503800	0.015700	0.167800
C341	C34	0.243100	0.752600	0.114500
C351	C35	0.863000	0.435600	0.696300
C361	C36	0.581000	0.259000	0.579600
C371	C37	0.496200	0.984300	0.832200
C381	C38	0.476400	0.960100	0.233300
C391	C39	0.497000	0.584000	0.603000
C401	C40	0.048000	0.219900	0.762800
C411	C41	0.686700	0.799700	0.061000
C421	C42	0.096000	0.478700	0.051500
C431	C43	0.165000	0.608400	0.240800
C441	C44	0.120000	0.525300	0.874600
C451	C45	0.105000	0.771600	0.140500
C461	C46	0.261000	0.500000	0.746500
C471	C47	0.739000	0.500000	0.253500
C481	C48	0.880000	0.474700	0.125400
C491	C49	0.164000	0.823900	0.003000
C501	C50	0.638000	0.109200	0.753200
C511	C51	0.079000	0.264000	0.701800
C521	C52	0.835000	0.391600	0.759200
C531	C53	0.836000	0.176100	0.997000
C541	C54	0.543100	0.146000	0.034200
C551	C55	0.568000	0.175100	0.645500
C561	C56	0.503000	0.416000	0.397000
C571	C57	0.423000	0.587000	0.668400
C581	C58	0.726800	0.204300	0.952100
C591	C59	0.625700	0.069200	0.145500
C601	C60	0.158100	0.494800	0.990800
C611	C61	0.424700	0.812500	0.029800
C621	C62	0.362000	0.890800	0.246800
C631	C63	0.547000	0.340000	0.293200
C641	C64	0.008000	0.422000	0.597500
C651	C65	0.137000	0.564400	0.303700
C661	C66	0.565000	0.963200	0.281900
C671	C67	0.223000	0.563100	0.849300
C681	C68	0.330000	0.512000	0.689100
C691	C69	0.937000	0.482800	0.059200
C701	C70	0.921000	0.736000	0.298200
C711	C71	0.344600	0.881400	0.921200
C721	C72	0.670000	0.488000	0.310900
C731	C73	0.577000	0.413000	0.331600
C741	C74	0.432000	0.824900	0.354500
C751	C75	0.706200	0.433000	0.214500
C761	C76	0.777000	0.436900	0.150700
C771	C77	0.374300	0.930800	0.854500
C781	C78	0.575300	0.187500	0.970200
O11	O1	0.135000	0.376000	0.576500
O21	O2	0.531800	0.785900	0.076400
O31	O3	0.800000	0.537400	0.900500
O41	O4	0.464300	0.282100	0.545000
O51	O5	0.535700	0.717900	0.455000
O61	O6	0.303000	0.689000	0.427500
O71	O7	0.200000	0.462600	0.099500
O81	O8	0.571000	0.459400	0.434500
O91	O9	0.088000	0.492900	0.432000
O101	O10	0.697000	0.311000	0.572500
O111	O11	0.398000	0.360000	0.407000
O121	O12	0.429000	0.540600	0.565500
O131	O13	0.912000	0.507100	0.568000
O141	O14	0.602000	0.640000	0.593000
O151	O15	0.468200	0.214100	0.923600
O161	O16	0.086200	0.893900	0.892000
O171	O17	0.865000	0.624000	0.423500
O181	O18	0.913800	0.106100	0.108000
