data_XOVPON_clean_PM
_symmetry_space_group_name_H-M	'P1'
_cell_length_a	8.684200
_cell_length_b	9.942000
_cell_length_c	11.733000
_cell_angle_alpha	74.670000
_cell_angle_beta	69.850000
_cell_angle_gamma	86.020000
_symmetry_Int_Tables_number 1

loop_
_symmetry_equiv_pos_as_xyz
'x,y,z'

loop_
_atom_site_label
_atom_site_type_symbol
_atom_site_fract_x
_atom_site_fract_y
_atom_site_fract_z
Ce11	Ce1	0.745550	0.477770	0.511910
Ce21	Ce2	0.254450	0.522230	0.488090
H11	H1	0.204600	0.462000	0.838800
H21	H2	0.231200	0.300900	0.863400
H31	H3	0.376300	0.307200	0.992300
H41	H4	0.377800	0.470600	0.956800
H51	H5	0.094100	0.299000	0.103300
H61	H6	0.087200	0.462000	0.061000
H71	H7	0.266500	0.472200	0.172600
H81	H8	0.242500	0.310800	0.226200
H91	H9	0.978400	0.876500	0.597800
H101	H10	0.036700	0.019800	0.602900
H111	H11	0.756200	0.981700	0.720300
H121	H12	0.720100	0.967600	0.601900
H131	H13	0.795400	0.538000	0.161200
H141	H14	0.768800	0.699100	0.136600
H151	H15	0.623700	0.692800	0.007700
H161	H16	0.622200	0.529400	0.043200
H171	H17	0.905900	0.701000	0.896700
H181	H18	0.912800	0.538000	0.939000
H191	H19	0.733500	0.527800	0.827400
H201	H20	0.757500	0.689200	0.773800
H211	H21	0.021600	0.123500	0.402200
H221	H22	0.963300	0.980200	0.397100
H231	H23	0.243800	0.018300	0.279700
H241	H24	0.279900	0.032400	0.398100
C11	C1	0.431000	0.413300	0.740300
C21	C2	0.281700	0.389500	0.852600
C31	C3	0.312700	0.388200	0.971500
C41	C4	0.155000	0.385100	0.083800
C51	C5	0.188700	0.395400	0.197800
C61	C6	0.047600	0.415900	0.306900
C71	C7	0.968400	0.976800	0.571400
C81	C8	0.789300	0.014600	0.629600
C91	C9	0.763600	0.170900	0.593900
C101	C10	0.569000	0.586700	0.259700
C111	C11	0.718300	0.610500	0.147400
C121	C12	0.687300	0.611800	0.028500
C131	C13	0.845000	0.614900	0.916200
C141	C14	0.811300	0.604600	0.802200
C151	C15	0.952400	0.584100	0.693100
C161	C16	0.031600	0.023200	0.428600
C171	C17	0.210700	0.985400	0.370400
C181	C18	0.236400	0.829100	0.406100
O11	O1	0.424400	0.455200	0.628000
O21	O2	0.574300	0.392400	0.748400
O31	O3	0.901800	0.383700	0.315800
O41	O4	0.065500	0.465700	0.389300
O51	O5	0.862100	0.252000	0.599700
O61	O6	0.642500	0.216600	0.560100
O71	O7	0.575600	0.544800	0.372000
O81	O8	0.425700	0.607600	0.251600
O91	O9	0.098200	0.616300	0.684200
O101	O10	0.934500	0.534300	0.610700
O111	O11	0.137900	0.748000	0.400300
O121	O12	0.357500	0.783400	0.439900
