data_XOVPUU_clean_PM
_symmetry_space_group_name_H-M	'P1'
_cell_length_a	15.956800
_cell_length_b	29.329000
_cell_length_c	28.657000
_cell_angle_alpha	90.000000
_cell_angle_beta	90.000000
_cell_angle_gamma	90.000000
_symmetry_Int_Tables_number 1

loop_
_symmetry_equiv_pos_as_xyz
'x,y,z'

loop_
_atom_site_label
_atom_site_type_symbol
_atom_site_fract_x
_atom_site_fract_y
_atom_site_fract_z
C11	C1	0.314900	0.201470	0.937890
O11	O1	0.245700	0.189810	0.951990
O21	O2	0.358000	0.236450	0.951960
C21	C2	0.466000	0.049940	0.785680
C31	C3	0.463600	0.097640	0.786930
C41	C4	0.314600	0.136140	0.881710
H11	H1	0.264000	0.126700	0.894600
C51	C5	0.353700	0.175110	0.898800
C61	C6	0.429900	0.186970	0.880330
H21	H2	0.457800	0.212300	0.892200
C71	C7	0.350700	0.110910	0.845340
H31	H3	0.322600	0.085500	0.833700
C81	C8	0.427200	0.123010	0.826370
C91	C9	0.467300	0.161870	0.843800
H41	H4	0.518300	0.171100	0.831400
O31	O3	0.427600	0.028170	0.822910
C101	C10	0.814900	0.701470	0.937890
O41	O4	0.745700	0.689810	0.951990
O51	O5	0.858000	0.736450	0.951960
C111	C11	0.966000	0.549940	0.785680
C121	C12	0.963600	0.597640	0.786930
C131	C13	0.814600	0.636140	0.881710
H51	H5	0.764000	0.626700	0.894600
C141	C14	0.853700	0.675110	0.898800
C151	C15	0.929900	0.686970	0.880330
H61	H6	0.957800	0.712300	0.892200
C161	C16	0.850700	0.610910	0.845340
H71	H7	0.822600	0.585500	0.833700
C171	C17	0.927200	0.623010	0.826370
C181	C18	0.967300	0.661870	0.843800
H81	H8	0.018300	0.671100	0.831400
O61	O6	0.927600	0.528170	0.822910
C191	C19	0.685100	0.798530	0.937890
O71	O7	0.754300	0.810190	0.951990
O81	O8	0.642000	0.763550	0.951960
C201	C20	0.534000	0.950060	0.785680
C211	C21	0.536400	0.902360	0.786930
C221	C22	0.685400	0.863860	0.881710
H91	H9	0.736000	0.873300	0.894600
C231	C23	0.646300	0.824890	0.898800
C241	C24	0.570100	0.813030	0.880330
H101	H10	0.542200	0.787700	0.892200
C251	C25	0.649300	0.889090	0.845340
H111	H11	0.677400	0.914500	0.833700
C261	C26	0.572800	0.876990	0.826370
C271	C27	0.532700	0.838130	0.843800
H121	H12	0.481700	0.828900	0.831400
O91	O9	0.572400	0.971830	0.822910
C281	C28	0.185100	0.298530	0.937890
O101	O10	0.254300	0.310190	0.951990
O111	O11	0.142000	0.263550	0.951960
C291	C29	0.034000	0.450060	0.785680
C301	C30	0.036400	0.402360	0.786930
C311	C31	0.185400	0.363860	0.881710
H131	H13	0.236000	0.373300	0.894600
C321	C32	0.146300	0.324890	0.898800
C331	C33	0.070100	0.313030	0.880330
H141	H14	0.042200	0.287700	0.892200
C341	C34	0.149300	0.389090	0.845340
H151	H15	0.177400	0.414500	0.833700
C351	C35	0.072800	0.376990	0.826370
C361	C36	0.032700	0.338130	0.843800
H161	H16	0.981700	0.328900	0.831400
O121	O12	0.072400	0.471830	0.822910
C371	C37	0.685100	0.201470	0.562110
O131	O13	0.754300	0.189810	0.548010
O141	O14	0.642000	0.236450	0.548040
C381	C38	0.534000	0.049940	0.714320
C391	C39	0.536400	0.097640	0.713070
C401	C40	0.685400	0.136140	0.618290
H171	H17	0.736000	0.126700	0.605400
C411	C41	0.646300	0.175110	0.601200
C421	C42	0.570100	0.186970	0.619670
H181	H18	0.542200	0.212300	0.607800
C431	C43	0.649300	0.110910	0.654660
H191	H19	0.677400	0.085500	0.666300
C441	C44	0.572800	0.123010	0.673630
C451	C45	0.532700	0.161870	0.656200
H201	H20	0.481700	0.171100	0.668600
O151	O15	0.572400	0.028170	0.677090
C461	C46	0.185100	0.701470	0.562110
O161	O16	0.254300	0.689810	0.548010
O171	O17	0.142000	0.736450	0.548040
C471	C47	0.034000	0.549940	0.714320
C481	C48	0.036400	0.597640	0.713070
C491	C49	0.185400	0.636140	0.618290
H211	H21	0.236000	0.626700	0.605400
C501	C50	0.146300	0.675110	0.601200
C511	C51	0.070100	0.686970	0.619670
H221	H22	0.042200	0.712300	0.607800
C521	C52	0.149300	0.610910	0.654660
H231	H23	0.177400	0.585500	0.666300
C531	C53	0.072800	0.623010	0.673630
C541	C54	0.032700	0.661870	0.656200
H241	H24	0.981700	0.671100	0.668600
O181	O18	0.072400	0.528170	0.677090
C551	C55	0.314900	0.798530	0.562110
O191	O19	0.245700	0.810190	0.548010
O201	O20	0.358000	0.763550	0.548040
C561	C56	0.466000	0.950060	0.714320
C571	C57	0.463600	0.902360	0.713070
C581	C58	0.314600	0.863860	0.618290
H251	H25	0.264000	0.873300	0.605400
C591	C59	0.353700	0.824890	0.601200
C601	C60	0.429900	0.813030	0.619670
H261	H26	0.457800	0.787700	0.607800
C611	C61	0.350700	0.889090	0.654660
H271	H27	0.322600	0.914500	0.666300
C621	C62	0.427200	0.876990	0.673630
C631	C63	0.467300	0.838130	0.656200
H281	H28	0.518300	0.828900	0.668600
O211	O21	0.427600	0.971830	0.677090
C641	C64	0.814900	0.298530	0.562110
O221	O22	0.745700	0.310190	0.548010
O231	O23	0.858000	0.263550	0.548040
C651	C65	0.966000	0.450060	0.714320
C661	C66	0.963600	0.402360	0.713070
C671	C67	0.814600	0.363860	0.618290
H291	H29	0.764000	0.373300	0.605400
C681	C68	0.853700	0.324890	0.601200
C691	C69	0.929900	0.313030	0.619670
H301	H30	0.957800	0.287700	0.607800
C701	C70	0.850700	0.389090	0.654660
H311	H31	0.822600	0.414500	0.666300
C711	C71	0.927200	0.376990	0.673630
C721	C72	0.967300	0.338130	0.656200
H321	H32	0.018300	0.328900	0.668600
O241	O24	0.927600	0.471830	0.677090
C731	C73	0.685100	0.798530	0.062110
O251	O25	0.754300	0.810190	0.048010
O261	O26	0.642000	0.763550	0.048040
C741	C74	0.534000	0.950060	0.214320
C751	C75	0.536400	0.902360	0.213070
C761	C76	0.685400	0.863860	0.118290
H331	H33	0.736000	0.873300	0.105400
C771	C77	0.646300	0.824890	0.101200
C781	C78	0.570100	0.813030	0.119670
H341	H34	0.542200	0.787700	0.107800
C791	C79	0.649300	0.889090	0.154660
H351	H35	0.677400	0.914500	0.166300
C801	C80	0.572800	0.876990	0.173630
C811	C81	0.532700	0.838130	0.156200
H361	H36	0.481700	0.828900	0.168600
O271	O27	0.572400	0.971830	0.177090
C821	C82	0.185100	0.298530	0.062110
O281	O28	0.254300	0.310190	0.048010
O291	O29	0.142000	0.263550	0.048040
C831	C83	0.034000	0.450060	0.214320
C841	C84	0.036400	0.402360	0.213070
C851	C85	0.185400	0.363860	0.118290
H371	H37	0.236000	0.373300	0.105400
C861	C86	0.146300	0.324890	0.101200
C871	C87	0.070100	0.313030	0.119670
H381	H38	0.042200	0.287700	0.107800
C881	C88	0.149300	0.389090	0.154660
H391	H39	0.177400	0.414500	0.166300
C891	C89	0.072800	0.376990	0.173630
C901	C90	0.032700	0.338130	0.156200
H401	H40	0.981700	0.328900	0.168600
O301	O30	0.072400	0.471830	0.177090
C911	C91	0.314900	0.201470	0.062110
O311	O31	0.245700	0.189810	0.048010
O321	O32	0.358000	0.236450	0.048040
C921	C92	0.466000	0.049940	0.214320
C931	C93	0.463600	0.097640	0.213070
C941	C94	0.314600	0.136140	0.118290
H411	H41	0.264000	0.126700	0.105400
C951	C95	0.353700	0.175110	0.101200
C961	C96	0.429900	0.186970	0.119670
H421	H42	0.457800	0.212300	0.107800
C971	C97	0.350700	0.110910	0.154660
H431	H43	0.322600	0.085500	0.166300
C981	C98	0.427200	0.123010	0.173630
C991	C99	0.467300	0.161870	0.156200
H441	H44	0.518300	0.171100	0.168600
O331	O33	0.427600	0.028170	0.177090
C1001	C100	0.814900	0.701470	0.062110
O341	O34	0.745700	0.689810	0.048010
O351	O35	0.858000	0.736450	0.048040
C1011	C101	0.966000	0.549940	0.214320
C1021	C102	0.963600	0.597640	0.213070
C1031	C103	0.814600	0.636140	0.118290
H451	H45	0.764000	0.626700	0.105400
C1041	C104	0.853700	0.675110	0.101200
C1051	C105	0.929900	0.686970	0.119670
H461	H46	0.957800	0.712300	0.107800
C1061	C106	0.850700	0.610910	0.154660
H471	H47	0.822600	0.585500	0.166300
C1071	C107	0.927200	0.623010	0.173630
C1081	C108	0.967300	0.661870	0.156200
H481	H48	0.018300	0.671100	0.168600
O361	O36	0.927600	0.528170	0.177090
C1091	C109	0.314900	0.798530	0.437890
O371	O37	0.245700	0.810190	0.451990
O381	O38	0.358000	0.763550	0.451960
C1101	C110	0.466000	0.950060	0.285680
C1111	C111	0.463600	0.902360	0.286930
C1121	C112	0.314600	0.863860	0.381710
H491	H49	0.264000	0.873300	0.394600
C1131	C113	0.353700	0.824890	0.398800
C1141	C114	0.429900	0.813030	0.380330
H501	H50	0.457800	0.787700	0.392200
C1151	C115	0.350700	0.889090	0.345340
H511	H51	0.322600	0.914500	0.333700
C1161	C116	0.427200	0.876990	0.326370
C1171	C117	0.467300	0.838130	0.343800
H521	H52	0.518300	0.828900	0.331400
O391	O39	0.427600	0.971830	0.322910
C1181	C118	0.814900	0.298530	0.437890
O401	O40	0.745700	0.310190	0.451990
O411	O41	0.858000	0.263550	0.451960
C1191	C119	0.966000	0.450060	0.285680
C1201	C120	0.963600	0.402360	0.286930
C1211	C121	0.814600	0.363860	0.381710
H531	H53	0.764000	0.373300	0.394600
C1221	C122	0.853700	0.324890	0.398800
C1231	C123	0.929900	0.313030	0.380330
H541	H54	0.957800	0.287700	0.392200
C1241	C124	0.850700	0.389090	0.345340
H551	H55	0.822600	0.414500	0.333700
C1251	C125	0.927200	0.376990	0.326370
C1261	C126	0.967300	0.338130	0.343800
H561	H56	0.018300	0.328900	0.331400
O421	O42	0.927600	0.471830	0.322910
C1271	C127	0.685100	0.201470	0.437890
O431	O43	0.754300	0.189810	0.451990
O441	O44	0.642000	0.236450	0.451960
C1281	C128	0.534000	0.049940	0.285680
C1291	C129	0.536400	0.097640	0.286930
C1301	C130	0.685400	0.136140	0.381710
H571	H57	0.736000	0.126700	0.394600
C1311	C131	0.646300	0.175110	0.398800
C1321	C132	0.570100	0.186970	0.380330
H581	H58	0.542200	0.212300	0.392200
C1331	C133	0.649300	0.110910	0.345340
H591	H59	0.677400	0.085500	0.333700
C1341	C134	0.572800	0.123010	0.326370
C1351	C135	0.532700	0.161870	0.343800
H601	H60	0.481700	0.171100	0.331400
O451	O45	0.572400	0.028170	0.322910
C1361	C136	0.185100	0.701470	0.437890
O461	O46	0.254300	0.689810	0.451990
O471	O47	0.142000	0.736450	0.451960
C1371	C137	0.034000	0.549940	0.285680
C1381	C138	0.036400	0.597640	0.286930
C1391	C139	0.185400	0.636140	0.381710
H611	H61	0.236000	0.626700	0.394600
C1401	C140	0.146300	0.675110	0.398800
C1411	C141	0.070100	0.686970	0.380330
H621	H62	0.042200	0.712300	0.392200
C1421	C142	0.149300	0.610910	0.345340
H631	H63	0.177400	0.585500	0.333700
C1431	C143	0.072800	0.623010	0.326370
C1441	C144	0.032700	0.661870	0.343800
H641	H64	0.981700	0.671100	0.331400
O481	O48	0.072400	0.528170	0.322910
Cu11	Cu1	0.185030	0.222700	0.000000
Cu21	Cu2	0.685030	0.722700	0.000000
Cu31	Cu3	0.814970	0.777300	0.000000
Cu41	Cu4	0.314970	0.277300	0.000000
Cu51	Cu5	0.814970	0.222700	0.500000
Cu61	Cu6	0.314970	0.722700	0.500000
Cu71	Cu7	0.185030	0.777300	0.500000
Cu81	Cu8	0.685030	0.277300	0.500000
C1451	C145	0.500000	0.025730	0.750000
C1461	C146	0.500000	0.119920	0.750000
H651	H65	0.500000	0.151600	0.750000
C1471	C147	0.000000	0.525730	0.750000
C1481	C148	0.000000	0.619920	0.750000
H661	H66	0.000000	0.651600	0.750000
C1491	C149	0.500000	0.974270	0.750000
C1501	C150	0.500000	0.880080	0.750000
H671	H67	0.500000	0.848400	0.750000
C1511	C151	0.000000	0.474270	0.750000
C1521	C152	0.000000	0.380080	0.750000
H681	H68	0.000000	0.348400	0.750000
C1531	C153	0.500000	0.974270	0.250000
C1541	C154	0.500000	0.880080	0.250000
H691	H69	0.500000	0.848400	0.250000
C1551	C155	0.000000	0.474270	0.250000
C1561	C156	0.000000	0.380080	0.250000
H701	H70	0.000000	0.348400	0.250000
C1571	C157	0.500000	0.025730	0.250000
C1581	C158	0.500000	0.119920	0.250000
H711	H71	0.500000	0.151600	0.250000
C1591	C159	0.000000	0.525730	0.250000
C1601	C160	0.000000	0.619920	0.250000
H721	H72	0.000000	0.651600	0.250000
