data_XOVQIJ_clean_PM
_symmetry_space_group_name_H-M	'P1'
_cell_length_a	17.075000
_cell_length_b	20.205000
_cell_length_c	20.519000
_cell_angle_alpha	90.000000
_cell_angle_beta	90.000000
_cell_angle_gamma	90.120000
_symmetry_Int_Tables_number 1

loop_
_symmetry_equiv_pos_as_xyz
'x,y,z'

loop_
_atom_site_label
_atom_site_type_symbol
_atom_site_fract_x
_atom_site_fract_y
_atom_site_fract_z
Na11	Na1	0.390500	0.233000	0.644500
Na21	Na2	0.109500	0.267000	0.144500
Na31	Na3	0.609500	0.767000	0.355500
Na41	Na4	0.890500	0.733000	0.855500
Zn11	Zn1	0.651130	0.374810	0.005570
Zn21	Zn2	0.848870	0.125190	0.505570
Zn31	Zn3	0.348870	0.625190	0.994430
Zn41	Zn4	0.151130	0.874810	0.494430
Zn51	Zn5	0.500000	0.500000	0.000000
Zn61	Zn6	0.000000	0.000000	0.500000
H11	H1	0.538800	0.279300	0.175400
H21	H2	0.491600	0.251200	0.278400
H31	H3	0.414500	0.438200	0.303200
H41	H4	0.461700	0.466200	0.200300
H51	H5	0.139200	0.134800	0.492900
H61	H6	0.205800	0.233900	0.474600
H71	H7	0.399500	0.131600	0.424700
H81	H8	0.332900	0.032500	0.443000
H91	H9	0.616900	0.374200	0.789900
H101	H10	0.574500	0.392200	0.683500
H111	H11	0.360700	0.442500	0.750800
H121	H12	0.403100	0.424400	0.857300
H131	H13	0.365600	0.733500	0.619400
H141	H14	0.412500	0.626300	0.634500
H151	H15	0.274100	0.561600	0.488200
H161	H16	0.227200	0.668800	0.473100
H171	H17	0.452700	0.413700	0.407900
H181	H18	0.379200	0.235300	0.343600
H191	H19	0.407500	0.529900	0.666000
H201	H20	0.355100	0.483500	0.479700
H211	H21	0.217400	0.330000	0.526700
H221	H22	0.272300	0.372200	0.573300
H231	H23	0.584400	0.319000	0.596300
H241	H24	0.546600	0.345000	0.530300
H251	H25	0.169700	0.328100	0.633600
H261	H26	0.192400	0.255500	0.610600
H271	H27	0.500400	0.244200	0.504100
H281	H28	0.587800	0.232300	0.526500
H291	H29	0.189400	0.302600	0.746000
H301	H30	0.207600	0.228000	0.726200
H311	H31	0.611100	0.148900	0.606100
H321	H32	0.602600	0.215200	0.646900
H331	H33	0.310900	0.313500	0.792400
H341	H34	0.269000	0.251000	0.823600
H351	H35	0.514900	0.098600	0.670600
H361	H36	0.584100	0.125000	0.715800
H371	H37	0.444500	0.268200	0.816600
H381	H38	0.398400	0.211500	0.854700
H391	H39	0.522700	0.178700	0.809700
H401	H40	0.451200	0.131400	0.793800
H411	H41	0.961200	0.220700	0.675400
H421	H42	0.008400	0.248800	0.778400
H431	H43	0.085500	0.061800	0.803200
H441	H44	0.038300	0.033800	0.700300
H451	H45	0.360800	0.365200	0.992900
H461	H46	0.294200	0.266100	0.974600
H471	H47	0.100500	0.368400	0.924700
H481	H48	0.167100	0.467500	0.943000
H491	H49	0.883100	0.125800	0.289900
H501	H50	0.925500	0.107800	0.183500
H511	H51	0.139300	0.057500	0.250800
H521	H52	0.096900	0.075600	0.357300
H531	H53	0.134400	0.766500	0.119400
H541	H54	0.087500	0.873700	0.134500
H551	H55	0.225900	0.938400	0.988200
H561	H56	0.272800	0.831200	0.973100
H571	H57	0.047300	0.086300	0.907900
H581	H58	0.120800	0.264700	0.843600
H591	H59	0.092500	0.970100	0.166000
H601	H60	0.144900	0.016500	0.979700
H611	H61	0.282600	0.170000	0.026700
H621	H62	0.227700	0.127800	0.073300
H631	H63	0.915600	0.181000	0.096300
H641	H64	0.953400	0.155000	0.030300
H651	H65	0.330300	0.171900	0.133600
H661	H66	0.307600	0.244500	0.110600
H671	H67	0.999600	0.255800	0.004100
H681	H68	0.912200	0.267700	0.026500
H691	H69	0.310600	0.197400	0.246000
H701	H70	0.292400	0.272000	0.226200
H711	H71	0.888900	0.351100	0.106100
H721	H72	0.897400	0.284800	0.146900
H731	H73	0.189100	0.186500	0.292400
H741	H74	0.231000	0.249000	0.323600
H751	H75	0.985100	0.401400	0.170600
H761	H76	0.915900	0.375000	0.215800
H771	H77	0.055500	0.231800	0.316600
H781	H78	0.101600	0.288500	0.354700
H791	H79	0.977300	0.321300	0.309700
H801	H80	0.048800	0.368600	0.293800
H811	H81	0.461200	0.720700	0.824600
H821	H82	0.508400	0.748800	0.721600
H831	H83	0.585500	0.561800	0.696800
H841	H84	0.538300	0.533800	0.799700
H851	H85	0.860800	0.865200	0.507100
H861	H86	0.794200	0.766100	0.525400
H871	H87	0.600500	0.868400	0.575300
H881	H88	0.667100	0.967500	0.557000
H891	H89	0.383100	0.625800	0.210100
H901	H90	0.425500	0.607800	0.316500
H911	H91	0.639300	0.557500	0.249200
H921	H92	0.596900	0.575600	0.142700
H931	H93	0.634400	0.266500	0.380600
H941	H94	0.587500	0.373700	0.365500
H951	H95	0.725900	0.438400	0.511800
H961	H96	0.772800	0.331200	0.526900
H971	H97	0.547300	0.586300	0.592100
H981	H98	0.620800	0.764700	0.656400
H991	H99	0.592500	0.470100	0.334000
H1001	H100	0.644900	0.516500	0.520300
H1011	H101	0.782600	0.670000	0.473300
H1021	H102	0.727700	0.627800	0.426700
H1031	H103	0.415600	0.681000	0.403700
H1041	H104	0.453400	0.655000	0.469700
H1051	H105	0.830300	0.671900	0.366400
H1061	H106	0.807600	0.744500	0.389400
H1071	H107	0.499600	0.755800	0.495900
H1081	H108	0.412200	0.767700	0.473500
H1091	H109	0.810600	0.697400	0.254000
H1101	H110	0.792400	0.772000	0.273800
H1111	H111	0.388900	0.851100	0.393900
H1121	H112	0.397400	0.784800	0.353100
H1131	H113	0.689100	0.686500	0.207600
H1141	H114	0.731000	0.749000	0.176400
H1151	H115	0.485100	0.901400	0.329400
H1161	H116	0.415900	0.875000	0.284200
H1171	H117	0.555500	0.731800	0.183400
H1181	H118	0.601600	0.788500	0.145300
H1191	H119	0.477300	0.821300	0.190300
H1201	H120	0.548800	0.868600	0.206200
H1211	H121	0.038800	0.779300	0.324600
H1221	H122	0.991600	0.751200	0.221600
H1231	H123	0.914500	0.938200	0.196800
H1241	H124	0.961700	0.966200	0.299700
H1251	H125	0.639200	0.634800	0.007100
H1261	H126	0.705800	0.733900	0.025400
H1271	H127	0.899500	0.631600	0.075300
H1281	H128	0.832900	0.532500	0.057000
H1291	H129	0.116900	0.874200	0.710100
H1301	H130	0.074500	0.892200	0.816500
H1311	H131	0.860700	0.942500	0.749200
H1321	H132	0.903100	0.924400	0.642700
H1331	H133	0.865600	0.233500	0.880600
H1341	H134	0.912500	0.126300	0.865500
H1351	H135	0.774100	0.061600	0.011800
H1361	H136	0.727200	0.168800	0.026900
H1371	H137	0.952700	0.913700	0.092100
H1381	H138	0.879200	0.735300	0.156400
H1391	H139	0.907500	0.029900	0.834000
H1401	H140	0.855100	0.983500	0.020300
H1411	H141	0.717400	0.830000	0.973300
H1421	H142	0.772300	0.872200	0.926700
H1431	H143	0.084400	0.819000	0.903700
H1441	H144	0.046600	0.845000	0.969700
H1451	H145	0.669700	0.828100	0.866400
H1461	H146	0.692400	0.755500	0.889400
H1471	H147	0.000400	0.744200	0.995900
H1481	H148	0.087800	0.732300	0.973500
H1491	H149	0.689400	0.802600	0.754000
H1501	H150	0.707600	0.728000	0.773800
H1511	H151	0.111100	0.648900	0.893900
H1521	H152	0.102600	0.715200	0.853100
H1531	H153	0.810900	0.813500	0.707600
H1541	H154	0.769000	0.751000	0.676400
H1551	H155	0.014900	0.598600	0.829400
H1561	H156	0.084100	0.625000	0.784200
H1571	H157	0.944500	0.768200	0.683400
H1581	H158	0.898400	0.711500	0.645300
H1591	H159	0.022700	0.678700	0.690300
H1601	H160	0.951200	0.631400	0.706200
C11	C1	0.504800	0.375500	0.177900
C21	C2	0.513700	0.311300	0.201200
C31	C3	0.485600	0.294600	0.262600
C41	C4	0.448500	0.342000	0.300700
C51	C5	0.439600	0.406100	0.277400
C61	C6	0.467700	0.422900	0.216000
C71	C7	0.533700	0.393400	0.116300
C81	C8	0.229600	0.074100	0.469700
C91	C9	0.191700	0.134200	0.479100
C101	C10	0.231500	0.193300	0.468200
C111	C11	0.309100	0.192300	0.447900
C121	C12	0.347000	0.132200	0.438400
C131	C13	0.307300	0.073200	0.449300
C141	C14	0.189500	0.016600	0.483800
C151	C15	0.514100	0.397600	0.833900
C161	C16	0.565200	0.388000	0.782000
C171	C17	0.539900	0.398700	0.718500
C181	C18	0.463500	0.419100	0.706900
C191	C19	0.412400	0.428700	0.758700
C201	C20	0.437700	0.417900	0.822200
C211	C21	0.265000	0.775300	0.535700
C221	C22	0.291900	0.711500	0.544800
C231	C23	0.347100	0.698800	0.593000
C241	C24	0.375100	0.634900	0.602000
C251	C25	0.347800	0.583600	0.562800
C261	C26	0.292500	0.596300	0.514700
C271	C27	0.264600	0.660200	0.505700
C281	C28	0.538300	0.390400	0.898000
C291	C29	0.394500	0.360100	0.476300
C301	C30	0.426900	0.373300	0.415500
C311	C31	0.421200	0.326600	0.365900
C321	C32	0.383000	0.266900	0.377100
C331	C33	0.350700	0.253700	0.437900
C341	C34	0.356400	0.300400	0.487500
C351	C35	0.404700	0.408000	0.530100
C361	C36	0.435000	0.390100	0.590500
C371	C37	0.436000	0.435700	0.641300
C381	C38	0.406800	0.499100	0.631700
C391	C39	0.376600	0.517000	0.571300
C401	C40	0.375600	0.471400	0.520500
C411	C41	0.253900	0.327300	0.563400
C421	C42	0.539800	0.314100	0.566600
C431	C43	0.213400	0.299500	0.620800
C441	C44	0.535700	0.245200	0.541800
C451	C45	0.230900	0.271900	0.733000
C461	C46	0.574200	0.176000	0.630600
C471	C47	0.291700	0.268700	0.783300
C481	C48	0.542000	0.138400	0.686000
C491	C49	0.418700	0.225100	0.812100
C501	C50	0.472900	0.175600	0.786100
C511	C51	0.995200	0.124500	0.677900
C521	C52	0.986300	0.188700	0.701200
C531	C53	0.014400	0.205400	0.762600
C541	C54	0.051500	0.158000	0.800700
C551	C55	0.060400	0.093900	0.777400
C561	C56	0.032300	0.077100	0.716000
C571	C57	0.966300	0.106600	0.616300
C581	C58	0.270400	0.425900	0.969700
C591	C59	0.308300	0.365800	0.979100
C601	C60	0.268500	0.306700	0.968200
C611	C61	0.190900	0.307700	0.947900
C621	C62	0.153000	0.367800	0.938400
C631	C63	0.192700	0.426800	0.949300
C641	C64	0.310500	0.483400	0.983800
C651	C65	0.985900	0.102400	0.333900
C661	C66	0.934800	0.112000	0.282000
C671	C67	0.960100	0.101300	0.218500
C681	C68	0.036500	0.080900	0.206900
C691	C69	0.087600	0.071300	0.258700
C701	C70	0.062300	0.082100	0.322200
C711	C71	0.235000	0.724700	0.035700
C721	C72	0.208100	0.788500	0.044800
C731	C73	0.152900	0.801200	0.093000
C741	C74	0.124900	0.865100	0.102000
C751	C75	0.152200	0.916400	0.062800
C761	C76	0.207500	0.903700	0.014700
C771	C77	0.235400	0.839800	0.005700
C781	C78	0.961700	0.109600	0.398000
C791	C79	0.105500	0.139900	0.976300
C801	C80	0.073100	0.126700	0.915500
C811	C81	0.078800	0.173400	0.865900
C821	C82	0.117000	0.233100	0.877100
C831	C83	0.149300	0.246300	0.937900
C841	C84	0.143600	0.199600	0.987500
C851	C85	0.095300	0.092000	0.030100
C861	C86	0.065000	0.109900	0.090500
C871	C87	0.064000	0.064300	0.141300
C881	C88	0.093200	0.000900	0.131700
C891	C89	0.123400	0.983000	0.071300
C901	C90	0.124400	0.028600	0.020500
C911	C91	0.246100	0.172700	0.063400
C921	C92	0.960200	0.185900	0.066600
C931	C93	0.286600	0.200500	0.120800
C941	C94	0.964300	0.254800	0.041800
C951	C95	0.269100	0.228100	0.233000
C961	C96	0.925800	0.324000	0.130600
C971	C97	0.208300	0.231300	0.283300
C981	C98	0.958000	0.361600	0.186000
C991	C99	0.081300	0.274900	0.312100
C1001	C100	0.027100	0.324400	0.286100
C1011	C101	0.495200	0.624500	0.822100
C1021	C102	0.486300	0.688700	0.798800
C1031	C103	0.514400	0.705400	0.737400
C1041	C104	0.551500	0.658000	0.699300
C1051	C105	0.560400	0.593900	0.722600
C1061	C106	0.532300	0.577100	0.784000
C1071	C107	0.466300	0.606600	0.883700
C1081	C108	0.770400	0.925900	0.530300
C1091	C109	0.808300	0.865800	0.520900
C1101	C110	0.768500	0.806700	0.531800
C1111	C111	0.690900	0.807700	0.552100
C1121	C112	0.653000	0.867800	0.561600
C1131	C113	0.692700	0.926800	0.550700
C1141	C114	0.810500	0.983400	0.516200
C1151	C115	0.485900	0.602400	0.166100
C1161	C116	0.434800	0.612000	0.218000
C1171	C117	0.460100	0.601300	0.281500
C1181	C118	0.536500	0.580900	0.293100
C1191	C119	0.587600	0.571300	0.241300
C1201	C120	0.562300	0.582100	0.177800
C1211	C121	0.735000	0.224700	0.464300
C1221	C122	0.708100	0.288500	0.455200
C1231	C123	0.652900	0.301200	0.407000
C1241	C124	0.624900	0.365100	0.398000
C1251	C125	0.652200	0.416400	0.437200
C1261	C126	0.707500	0.403700	0.485300
C1271	C127	0.735400	0.339800	0.494300
C1281	C128	0.461700	0.609600	0.102000
C1291	C129	0.605500	0.639900	0.523700
C1301	C130	0.573100	0.626700	0.584500
C1311	C131	0.578800	0.673400	0.634100
C1321	C132	0.617000	0.733100	0.622900
C1331	C133	0.649300	0.746300	0.562100
C1341	C134	0.643600	0.699600	0.512500
C1351	C135	0.595300	0.592000	0.469900
C1361	C136	0.565000	0.609900	0.409500
C1371	C137	0.564000	0.564300	0.358700
C1381	C138	0.593200	0.500900	0.368300
C1391	C139	0.623400	0.483000	0.428700
C1401	C140	0.624400	0.528600	0.479500
C1411	C141	0.746100	0.672700	0.436600
C1421	C142	0.460200	0.685900	0.433400
C1431	C143	0.786600	0.700500	0.379200
C1441	C144	0.464300	0.754800	0.458200
C1451	C145	0.769100	0.728100	0.267000
C1461	C146	0.425800	0.824000	0.369400
C1471	C147	0.708300	0.731300	0.216700
C1481	C148	0.458000	0.861600	0.314000
C1491	C149	0.581300	0.774900	0.187900
C1501	C150	0.527100	0.824400	0.213900
C1511	C151	0.004800	0.875500	0.322100
C1521	C152	0.013700	0.811300	0.298800
C1531	C153	0.985600	0.794600	0.237400
C1541	C154	0.948500	0.842000	0.199300
C1551	C155	0.939600	0.906100	0.222600
C1561	C156	0.967700	0.922900	0.284000
C1571	C157	0.033700	0.893400	0.383700
C1581	C158	0.729600	0.574100	0.030300
C1591	C159	0.691700	0.634200	0.020900
C1601	C160	0.731500	0.693300	0.031800
C1611	C161	0.809100	0.692300	0.052100
C1621	C162	0.847000	0.632200	0.061600
C1631	C163	0.807300	0.573200	0.050700
C1641	C164	0.689500	0.516600	0.016200
C1651	C165	0.014100	0.897600	0.666100
C1661	C166	0.065200	0.888000	0.718000
C1671	C167	0.039900	0.898700	0.781500
C1681	C168	0.963500	0.919100	0.793100
C1691	C169	0.912400	0.928700	0.741300
C1701	C170	0.937700	0.917900	0.677800
C1711	C171	0.765000	0.275300	0.964300
C1721	C172	0.791900	0.211500	0.955200
C1731	C173	0.847100	0.198800	0.907000
C1741	C174	0.875100	0.134900	0.898000
C1751	C175	0.847800	0.083600	0.937200
C1761	C176	0.792500	0.096300	0.985300
C1771	C177	0.764600	0.160200	0.994300
C1781	C178	0.038300	0.890400	0.602000
C1791	C179	0.894500	0.860100	0.023700
C1801	C180	0.926900	0.873300	0.084500
C1811	C181	0.921200	0.826600	0.134100
C1821	C182	0.883000	0.766900	0.122900
C1831	C183	0.850700	0.753700	0.062100
C1841	C184	0.856400	0.800400	0.012500
C1851	C185	0.904700	0.908000	0.969900
C1861	C186	0.935000	0.890100	0.909500
C1871	C187	0.936000	0.935700	0.858700
C1881	C188	0.906800	0.999100	0.868300
C1891	C189	0.876600	0.017000	0.928700
C1901	C190	0.875600	0.971400	0.979500
C1911	C191	0.753900	0.827300	0.936600
C1921	C192	0.039800	0.814100	0.933400
C1931	C193	0.713400	0.799500	0.879200
C1941	C194	0.035700	0.745200	0.958200
C1951	C195	0.730900	0.771900	0.767000
C1961	C196	0.074200	0.676000	0.869400
C1971	C197	0.791700	0.768700	0.716700
C1981	C198	0.042000	0.638400	0.814000
C1991	C199	0.918700	0.725100	0.687900
C2001	C200	0.972900	0.675600	0.713900
O11	O1	0.518500	0.452900	0.087400
O21	O2	0.583900	0.355000	0.081700
O31	O3	0.119200	0.010200	0.515200
O41	O4	0.215400	0.954800	0.469300
O51	O5	0.208600	0.790900	0.492000
O61	O6	0.290900	0.830700	0.567400
O71	O7	0.498500	0.408300	0.952400
O81	O8	0.609900	0.370700	0.916500
O91	O9	0.319500	0.286400	0.546000
O101	O10	0.466500	0.328000	0.601000
O111	O11	0.269600	0.295200	0.672900
O121	O12	0.509800	0.197900	0.587200
O131	O13	0.355800	0.228000	0.763700
O141	O14	0.487200	0.183500	0.718800
O151	O15	0.981500	0.047100	0.587400
O161	O16	0.916100	0.145000	0.581700
O171	O17	0.380800	0.489800	0.015200
O181	O18	0.284600	0.545200	0.969300
O191	O19	0.291400	0.709100	0.992000
O201	O20	0.209100	0.669300	0.067400
O211	O21	0.001500	0.091700	0.452400
O221	O22	0.890100	0.129300	0.416500
O231	O23	0.180500	0.213600	0.046000
O241	O24	0.033500	0.172000	0.101000
O251	O25	0.230400	0.204800	0.172900
O261	O26	0.990200	0.302100	0.087200
O271	O27	0.144200	0.272000	0.263700
O281	O28	0.012800	0.316500	0.218800
O291	O29	0.481500	0.547100	0.912600
O301	O30	0.416100	0.645000	0.918300
O311	O31	0.880800	0.989800	0.484800
O321	O32	0.784600	0.045200	0.530700
O331	O33	0.791400	0.209100	0.508000
O341	O34	0.709100	0.169300	0.432600
O351	O35	0.501500	0.591700	0.047600
O361	O36	0.390100	0.629300	0.083500
O371	O37	0.680500	0.713600	0.454000
O381	O38	0.533500	0.672000	0.399000
O391	O39	0.730400	0.704800	0.327100
O401	O40	0.490200	0.802100	0.412800
O411	O41	0.644200	0.772000	0.236300
O421	O42	0.512800	0.816500	0.281200
O431	O43	0.018500	0.952900	0.412600
O441	O44	0.083900	0.855000	0.418300
O451	O45	0.619200	0.510200	0.984800
O461	O46	0.715400	0.454800	0.030700
O471	O47	0.708600	0.290900	0.008000
O481	O48	0.790900	0.330700	0.932600
O491	O49	0.998500	0.908300	0.547600
O501	O50	0.109900	0.870700	0.583500
O511	O51	0.819500	0.786400	0.954000
O521	O52	0.966500	0.828000	0.899000
O531	O53	0.769600	0.795200	0.827100
O541	O54	0.009800	0.697900	0.912800
O551	O55	0.855800	0.728000	0.736300
O561	O56	0.987200	0.683500	0.781200
