data_XUCNOZ_clean_PM
_symmetry_space_group_name_H-M	'P1'
_cell_length_a	13.587400
_cell_length_b	13.587400
_cell_length_c	25.724300
_cell_angle_alpha	83.801900
_cell_angle_beta	75.096600
_cell_angle_gamma	107.979000
_symmetry_Int_Tables_number 1

loop_
_symmetry_equiv_pos_as_xyz
'x,y,z'

loop_
_atom_site_label
_atom_site_type_symbol
_atom_site_fract_x
_atom_site_fract_y
_atom_site_fract_z
Zn11	Zn1	0.674950	0.886690	0.052540
Zn21	Zn2	0.235290	0.826060	0.087050
Zn31	Zn3	0.490560	0.092650	0.128210
Zn41	Zn4	0.439230	0.727490	0.447460
Zn51	Zn5	0.413110	0.322340	0.412950
Zn61	Zn6	0.720860	0.618770	0.371790
Zn71	Zn7	0.325050	0.113310	0.947460
Zn81	Zn8	0.764710	0.173940	0.912950
Zn91	Zn9	0.509440	0.907350	0.871790
Zn101	Zn10	0.560770	0.272510	0.552540
Zn111	Zn11	0.586890	0.677660	0.587050
Zn121	Zn12	0.279140	0.381230	0.628210
Zn131	Zn13	0.500000	0.000000	0.000000
Zn141	Zn14	0.500000	0.500000	0.500000
Cd11	Cd1	0.867470	0.739200	0.183090
Cd21	Cd2	0.422290	0.050560	0.316910
Cd31	Cd3	0.132530	0.260800	0.816910
Cd41	Cd4	0.577710	0.949440	0.683090
P11	P1	0.439330	0.854580	0.123050
P21	P2	0.707390	0.127080	0.040870
P31	P3	0.693200	0.929150	0.927790
P41	P4	0.477630	0.562380	0.376950
P51	P5	0.667950	0.748260	0.459130
P61	P6	0.356940	0.620990	0.572210
P71	P7	0.560670	0.145420	0.876950
P81	P8	0.292610	0.872920	0.959130
P91	P9	0.306800	0.070850	0.072210
P101	P10	0.522370	0.437620	0.623050
P111	P11	0.332050	0.251740	0.540870
P121	P12	0.643060	0.379010	0.427790
H11	H1	0.043800	0.488100	0.150900
H21	H2	0.134300	0.468300	0.174200
H31	H3	0.214300	0.490000	0.080900
H41	H4	0.169100	0.580600	0.066700
H51	H5	0.335700	0.598000	0.118100
H61	H6	0.345500	0.675600	0.065100
H71	H7	0.341800	0.693500	0.184900
H81	H8	0.279400	0.772600	0.196200
H91	H9	0.133300	0.610800	0.210500
H101	H10	0.694700	0.308700	0.167400
H111	H11	0.516900	0.364300	0.190000
H121	H12	0.633100	0.440300	0.152400
H131	H13	0.542600	0.433000	0.088600
H141	H14	0.463200	0.315900	0.116300
H151	H15	0.590400	0.290900	0.042500
H161	H16	0.688500	0.376300	0.053200
H171	H17	0.731700	0.168900	0.123400
H181	H18	0.786400	0.271200	0.076800
H191	H19	0.866500	0.769700	0.993200
H201	H20	0.804100	0.592000	0.004300
H211	H21	0.712100	0.577800	0.059500
H221	H22	0.700700	0.620200	0.951300
H231	H23	0.608700	0.539000	0.002300
H241	H24	0.568400	0.671700	0.041100
H251	H25	0.585100	0.710400	0.978300
H261	H26	0.775400	0.801800	0.918600
H271	H27	0.845000	0.894900	0.939700
H281	H28	0.139000	0.194700	0.349100
H291	H29	0.142500	0.308500	0.325800
H301	H30	0.070900	0.295200	0.419100
H311	H31	0.147300	0.235800	0.433300
H321	H32	0.216100	0.453800	0.381900
H331	H33	0.240700	0.410600	0.434900
H341	H34	0.378400	0.526700	0.315100
H351	H35	0.468800	0.475600	0.303800
H361	H36	0.321300	0.343800	0.289500
H371	H37	0.976100	0.862100	0.332600
H381	H38	0.054300	0.706900	0.310000
H391	H39	0.092700	0.785500	0.347600
H401	H40	0.021600	0.631200	0.411400
H411	H41	0.932200	0.579500	0.383700
H421	H42	0.833400	0.632900	0.457500
H431	H43	0.929500	0.741700	0.446800
H441	H44	0.792300	0.855100	0.376600
H451	H45	0.848000	0.863200	0.423200
H461	H46	0.262900	0.859700	0.506800
H471	H47	0.096300	0.808400	0.495700
H481	H48	0.137300	0.771600	0.440500
H491	H49	0.071500	0.652000	0.548700
H501	H50	0.041300	0.611000	0.497700
H511	H51	0.212800	0.609500	0.458900
H521	H52	0.188700	0.563400	0.521700
H531	H53	0.220400	0.694000	0.581400
H541	H54	0.334600	0.784700	0.560300
H551	H55	0.956200	0.511900	0.849100
H561	H56	0.865700	0.531700	0.825800
H571	H57	0.785700	0.510000	0.919100
H581	H58	0.830900	0.419400	0.933300
H591	H59	0.664300	0.402000	0.881900
H601	H60	0.654500	0.324400	0.934900
H611	H61	0.658200	0.306500	0.815100
H621	H62	0.720600	0.227400	0.803800
H631	H63	0.866700	0.389200	0.789500
H641	H64	0.305300	0.691300	0.832600
H651	H65	0.483100	0.635700	0.810000
H661	H66	0.366900	0.559700	0.847600
H671	H67	0.457400	0.567000	0.911400
H681	H68	0.536800	0.684100	0.883700
H691	H69	0.409600	0.709100	0.957500
H701	H70	0.311500	0.623700	0.946800
H711	H71	0.268300	0.831100	0.876600
H721	H72	0.213600	0.728800	0.923200
H731	H73	0.133500	0.230300	0.006800
H741	H74	0.195900	0.408000	0.995700
H751	H75	0.287900	0.422200	0.940500
H761	H76	0.299300	0.379800	0.048700
H771	H77	0.391300	0.461000	0.997700
H781	H78	0.431600	0.328300	0.958900
H791	H79	0.414900	0.289600	0.021700
H801	H80	0.224600	0.198200	0.081400
H811	H81	0.155000	0.105100	0.060300
H821	H82	0.861000	0.805300	0.650900
H831	H83	0.857500	0.691500	0.674200
H841	H84	0.929100	0.704800	0.580900
H851	H85	0.852700	0.764200	0.566700
H861	H86	0.783900	0.546200	0.618100
H871	H87	0.759300	0.589400	0.565100
H881	H88	0.621600	0.473300	0.684900
H891	H89	0.531200	0.524400	0.696200
H901	H90	0.678700	0.656200	0.710500
H911	H91	0.023900	0.137900	0.667400
H921	H92	0.945700	0.293100	0.690000
H931	H93	0.907300	0.214500	0.652400
H941	H94	0.978400	0.368800	0.588600
H951	H95	0.067800	0.420500	0.616300
H961	H96	0.166600	0.367100	0.542500
H971	H97	0.070500	0.258300	0.553200
H981	H98	0.207700	0.144900	0.623400
H991	H99	0.152000	0.136800	0.576800
H1001	H100	0.737100	0.140300	0.493200
H1011	H101	0.903700	0.191600	0.504300
H1021	H102	0.862700	0.228400	0.559500
H1031	H103	0.928500	0.348000	0.451300
H1041	H104	0.958700	0.389000	0.502300
H1051	H105	0.787200	0.390500	0.541100
H1061	H106	0.811300	0.436600	0.478300
H1071	H107	0.779600	0.306000	0.418600
H1081	H108	0.665400	0.215300	0.439700
C11	C1	0.118300	0.518900	0.151200
C21	C2	0.197400	0.550000	0.092800
C31	C3	0.296500	0.631900	0.100200
C41	C4	0.319300	0.746000	0.167500
C51	C5	0.135800	0.622400	0.171800
C61	C6	0.050700	0.668400	0.164500
C71	C7	0.545800	0.195100	0.212900
C81	C8	0.621400	0.281900	0.163900
C91	C9	0.576700	0.372300	0.157600
C101	C10	0.537500	0.364300	0.106800
C111	C11	0.618000	0.321400	0.070600
C121	C12	0.722100	0.208100	0.092400
C131	C13	0.801100	0.763400	0.076300
C141	C14	0.793900	0.739400	0.020100
C151	C15	0.747100	0.617300	0.022000
C161	C16	0.665600	0.608100	0.990500
C171	C17	0.620300	0.693300	0.004600
C181	C18	0.771400	0.849200	0.944000
C191	C19	0.170100	0.269500	0.348800
C201	C20	0.142800	0.290200	0.407200
C211	C21	0.232100	0.396700	0.399800
C221	C22	0.413500	0.486800	0.332500
C231	C23	0.294200	0.307600	0.328200
C241	C24	0.332900	0.215200	0.335500
C251	C25	0.908000	0.758700	0.287100
C261	C26	0.945800	0.785300	0.336100
C271	C27	0.029900	0.734300	0.342400
C281	C28	0.971100	0.644300	0.393200
C291	C29	0.892000	0.688600	0.429400
C301	C30	0.800500	0.814500	0.407600
C311	C31	0.339700	0.877400	0.423700
C321	C32	0.259500	0.814000	0.479900
C331	C33	0.139300	0.769100	0.478000
C341	C34	0.098600	0.656100	0.509500
C351	C35	0.197900	0.624900	0.495400
C361	C36	0.293200	0.715400	0.556000
C371	C37	0.881700	0.481100	0.848800
C381	C38	0.802600	0.450000	0.907200
C391	C39	0.703500	0.368100	0.899800
C401	C40	0.680700	0.254000	0.832500
C411	C41	0.864200	0.377600	0.828200
C421	C42	0.949300	0.331600	0.835500
C431	C43	0.454200	0.804900	0.787100
C441	C44	0.378600	0.718100	0.836100
C451	C45	0.423300	0.627700	0.842400
C461	C46	0.462500	0.635700	0.893200
C471	C47	0.382000	0.678600	0.929400
C481	C48	0.277900	0.791900	0.907600
C491	C49	0.198900	0.236600	0.923700
C501	C50	0.206100	0.260600	0.979900
C511	C51	0.252900	0.382700	0.978000
C521	C52	0.334400	0.391900	0.009500
C531	C53	0.379700	0.306700	0.995400
C541	C54	0.228600	0.150800	0.056000
C551	C55	0.829900	0.730500	0.651200
C561	C56	0.857200	0.709800	0.592800
C571	C57	0.767900	0.603300	0.600200
C581	C58	0.586500	0.513200	0.667500
C591	C59	0.705800	0.692400	0.671800
C601	C60	0.667100	0.784800	0.664500
C611	C61	0.092000	0.241300	0.712900
C621	C62	0.054200	0.214700	0.663900
C631	C63	0.970100	0.265700	0.657600
C641	C64	0.028900	0.355700	0.606800
C651	C65	0.108000	0.311400	0.570600
C661	C66	0.199500	0.185500	0.592400
C671	C67	0.660300	0.122600	0.576300
C681	C68	0.740500	0.186000	0.520100
C691	C69	0.860700	0.230900	0.522000
C701	C70	0.901400	0.343900	0.490500
C711	C71	0.802100	0.375100	0.504600
C721	C72	0.706800	0.284600	0.444000
N11	N1	0.247800	0.696500	0.136100
N21	N2	0.719600	0.786700	0.001500
N31	N3	0.624000	0.239100	0.111700
N41	N4	0.332600	0.383900	0.363900
N51	N5	0.288200	0.721100	0.498500
N61	N6	0.850800	0.735700	0.388300
N71	N7	0.752200	0.303500	0.863900
N81	N8	0.280400	0.213300	0.998500
N91	N9	0.376000	0.760900	0.888300
N101	N10	0.667400	0.616100	0.636100
N111	N11	0.711800	0.278900	0.501500
N121	N12	0.149200	0.264300	0.611700
O11	O1	0.533260	0.813600	0.107140
O21	O2	0.406210	0.886100	0.072290
O31	O3	0.461700	0.941000	0.155900
O41	O4	0.074960	0.754000	0.131240
O51	O5	0.953630	0.618300	0.194670
O61	O6	0.477260	0.113100	0.206440
O71	O7	0.553800	0.208400	0.259400
O81	O8	0.583980	0.086200	0.048420
O91	O9	0.749460	0.037700	0.053440
O101	O10	0.774190	0.198900	0.984910
O111	O11	0.849800	0.714100	0.098900
O121	O12	0.761520	0.828100	0.095380
O131	O13	0.778010	0.038400	0.896990
O141	O14	0.627790	0.877900	0.891910
O151	O15	0.622000	0.932900	0.984500
O161	O16	0.420740	0.640400	0.392860
O171	O17	0.458390	0.478500	0.427710
O181	O18	0.596900	0.617600	0.344100
O191	O19	0.385240	0.206200	0.368760
O201	O20	0.312970	0.148300	0.305330
O211	O21	0.819540	0.683700	0.293560
O221	O22	0.967800	0.813200	0.240600
O231	O23	0.634620	0.632400	0.451580
O241	O24	0.591140	0.802900	0.446560
O251	O25	0.683810	0.759100	0.515090
O261	O26	0.313000	0.948700	0.401100
O271	O27	0.423480	0.856900	0.404620
O281	O28	0.435390	0.675000	0.603010
O291	O29	0.269810	0.519700	0.608090
O301	O30	0.417400	0.606500	0.515500
O311	O31	0.466740	0.186400	0.892860
O321	O32	0.593790	0.113900	0.927710
O331	O33	0.538300	0.059000	0.844100
O341	O34	0.925040	0.246000	0.868760
O351	O35	0.046370	0.381700	0.805330
O361	O36	0.522740	0.886900	0.793560
O371	O37	0.446200	0.791600	0.740600
O381	O38	0.416020	0.913800	0.951580
O391	O39	0.250540	0.962300	0.946560
O401	O40	0.225810	0.801100	0.015090
O411	O41	0.150200	0.285900	0.901100
O421	O42	0.238480	0.171900	0.904620
O431	O43	0.221990	0.961600	0.103010
O441	O44	0.372210	0.122100	0.108090
O451	O45	0.378000	0.067100	0.015500
O461	O46	0.579260	0.359600	0.607140
O471	O47	0.541610	0.521500	0.572290
O481	O48	0.403100	0.382400	0.655900
O491	O49	0.614760	0.793800	0.631240
O501	O50	0.687030	0.851700	0.694670
O511	O51	0.180460	0.316300	0.706440
O521	O52	0.032200	0.186800	0.759400
O531	O53	0.365380	0.367600	0.548420
O541	O54	0.408860	0.197100	0.553440
O551	O55	0.316190	0.240900	0.484910
O561	O56	0.687000	0.051300	0.598900
O571	O57	0.576520	0.143100	0.595380
O581	O58	0.564610	0.325000	0.396990
O591	O59	0.730190	0.480300	0.391910
O601	O60	0.582600	0.393500	0.484500
