data_XUCSAR_clean_PM
_symmetry_space_group_name_H-M	'P1'
_cell_length_a	9.608400
_cell_length_b	15.803000
_cell_length_c	7.930900
_cell_angle_alpha	90.000000
_cell_angle_beta	96.840000
_cell_angle_gamma	90.000000
_symmetry_Int_Tables_number 1

loop_
_symmetry_equiv_pos_as_xyz
'x,y,z'

loop_
_atom_site_label
_atom_site_type_symbol
_atom_site_fract_x
_atom_site_fract_y
_atom_site_fract_z
Y11	Y1	0.866940	0.672630	0.072570
O11	O1	0.708700	0.570600	0.948500
O21	O2	0.108600	0.689720	0.144200
O31	O3	0.943300	0.538000	0.186500
O41	O4	0.187200	0.762500	0.375700
O51	O5	0.023500	0.410040	0.126900
N11	N1	0.625900	0.673000	0.182900
N21	N2	0.452000	0.735500	0.330500
C11	C1	0.526800	0.632300	0.080800
C21	C2	0.203300	0.717400	0.251500
C31	C3	0.385400	0.641200	0.100500
C41	C4	0.353200	0.695300	0.224700
O61	O6	0.488000	0.555510	0.825100
C51	C5	0.576800	0.581300	0.940400
C61	C6	0.583600	0.722300	0.303700
C71	C7	0.990200	0.485000	0.090700
H11	H1	0.313930	0.610830	0.030170
H21	H2	0.655100	0.750700	0.377570
Y21	Y2	0.633060	0.172630	0.427430
O71	O7	0.791300	0.070600	0.551500
O81	O8	0.391400	0.189720	0.355800
O91	O9	0.556700	0.038000	0.313500
O101	O10	0.312800	0.262500	0.124300
O111	O11	0.476500	0.910040	0.373100
N31	N3	0.874100	0.173000	0.317100
N41	N4	0.048000	0.235500	0.169500
C81	C8	0.973200	0.132300	0.419200
C91	C9	0.296700	0.217400	0.248500
C101	C10	0.114600	0.141200	0.399500
C111	C11	0.146800	0.195300	0.275300
O121	O12	0.012000	0.055510	0.674900
C121	C12	0.923200	0.081300	0.559600
C131	C13	0.916400	0.222300	0.196300
C141	C14	0.509800	0.985000	0.409300
H31	H3	0.186070	0.110830	0.469830
H41	H4	0.844900	0.250700	0.122430
Y31	Y3	0.133060	0.327370	0.927430
O131	O13	0.291300	0.429400	0.051500
O141	O14	0.891400	0.310280	0.855800
O151	O15	0.056700	0.462000	0.813500
O161	O16	0.812800	0.237500	0.624300
O171	O17	0.976500	0.589960	0.873100
N51	N5	0.374100	0.327000	0.817100
N61	N6	0.548000	0.264500	0.669500
C151	C15	0.473200	0.367700	0.919200
C161	C16	0.796700	0.282600	0.748500
C171	C17	0.614600	0.358800	0.899500
C181	C18	0.646800	0.304700	0.775300
O181	O18	0.512000	0.444490	0.174900
C191	C19	0.423200	0.418700	0.059600
C201	C20	0.416400	0.277700	0.696300
C211	C21	0.009800	0.515000	0.909300
H51	H5	0.686070	0.389170	0.969830
H61	H6	0.344900	0.249300	0.622430
Y41	Y4	0.366940	0.827370	0.572570
O191	O19	0.208700	0.929400	0.448500
O201	O20	0.608600	0.810280	0.644200
O211	O21	0.443300	0.962000	0.686500
O221	O22	0.687200	0.737500	0.875700
O231	O23	0.523500	0.089960	0.626900
N71	N7	0.125900	0.827000	0.682900
N81	N8	0.952000	0.764500	0.830500
C221	C22	0.026800	0.867700	0.580800
C231	C23	0.703300	0.782600	0.751500
C241	C24	0.885400	0.858800	0.600500
C251	C25	0.853200	0.804700	0.724700
O241	O24	0.988000	0.944490	0.325100
C261	C26	0.076800	0.918700	0.440400
C271	C27	0.083600	0.777700	0.803700
C281	C28	0.490200	0.015000	0.590700
H71	H7	0.813930	0.889170	0.530170
H81	H8	0.155100	0.749300	0.877570
