data_XUCSAR01_clean_PM
_symmetry_space_group_name_H-M	'P1'
_cell_length_a	9.608400
_cell_length_b	15.803200
_cell_length_c	23.792700
_cell_angle_alpha	90.000000
_cell_angle_beta	96.840000
_cell_angle_gamma	90.000000
_symmetry_Int_Tables_number 1

loop_
_symmetry_equiv_pos_as_xyz
'x,y,z'

loop_
_atom_site_label
_atom_site_type_symbol
_atom_site_fract_x
_atom_site_fract_y
_atom_site_fract_z
Y11	Y1	0.869190	0.674580	0.021990
O11	O1	0.711700	0.571100	0.981700
O21	O2	0.112100	0.693200	0.044900
O31	O3	0.950600	0.542800	0.061900
O41	O4	0.186800	0.754200	0.127000
O51	O5	0.018300	0.411600	0.043500
N11	N1	0.629700	0.671900	0.061400
N21	N2	0.453900	0.732000	0.111700
C11	C1	0.530100	0.632300	0.026100
C21	C2	0.205400	0.715600	0.082900
C31	C3	0.388200	0.641200	0.032000
C41	C4	0.355200	0.693900	0.074700
O61	O6	0.491000	0.557200	0.940900
C51	C5	0.581000	0.582100	0.979400
C61	C6	0.586800	0.719100	0.103200
C71	C7	0.989700	0.486900	0.030600
H11	H1	0.321000	0.606000	0.013000
H21	H2	0.646000	0.753000	0.127000
Y21	Y2	0.366140	0.834800	0.857580
O71	O7	0.206700	0.936300	0.816400
O81	O8	0.607100	0.816100	0.882300
O91	O9	0.443000	0.969600	0.894400
O101	O10	0.564000	0.040400	0.769900
O111	O11	0.687400	0.737000	0.956400
O121	O12	0.474800	0.915100	0.790500
O131	O13	0.526800	0.096500	0.874000
N31	N3	0.125100	0.831200	0.893400
N41	N4	0.952300	0.766800	0.941400
C81	C8	0.025400	0.871900	0.859300
C91	C9	0.702700	0.785700	0.916500
C101	C10	0.884600	0.862500	0.866500
C111	C11	0.853300	0.807800	0.906800
O141	O14	0.985100	0.949900	0.774700
C121	C12	0.074100	0.924300	0.812000
C131	C13	0.083400	0.780700	0.932600
C141	C14	0.494200	0.022300	0.862400
C151	C15	0.513500	0.990100	0.802200
H31	H3	0.816000	0.886000	0.845000
H41	H4	0.156000	0.758000	0.952000
Y31	Y3	0.365510	0.821870	0.192990
O151	O15	0.207200	0.922900	0.150500
O161	O16	0.606400	0.807800	0.217000
O171	O17	0.687700	0.729500	0.292300
N51	N5	0.123100	0.821800	0.228100
N61	N6	0.949900	0.758600	0.277400
C161	C16	0.025300	0.864000	0.195500
C171	C17	0.702200	0.777500	0.252100
C181	C18	0.883300	0.855300	0.202100
C191	C19	0.851100	0.800800	0.243400
O181	O18	0.987300	0.940800	0.109500
C201	C20	0.075800	0.913900	0.148900
C211	C21	0.080200	0.771500	0.268100
H51	H5	0.799000	0.884000	0.177000
H61	H6	0.150000	0.741000	0.291000
Y41	Y4	0.630810	0.174580	0.478010
O191	O19	0.788300	0.071100	0.518300
O201	O20	0.387900	0.193200	0.455100
O211	O21	0.549400	0.042800	0.438100
O221	O22	0.313200	0.254200	0.373000
O231	O23	0.481700	0.911600	0.456500
N71	N7	0.870300	0.171900	0.438600
N81	N8	0.046100	0.232000	0.388300
C221	C22	0.969900	0.132300	0.473900
C231	C23	0.294600	0.215600	0.417100
C241	C24	0.111800	0.141200	0.468000
C251	C25	0.144800	0.193900	0.425300
O241	O24	0.009000	0.057200	0.559100
C261	C26	0.919000	0.082100	0.520600
C271	C27	0.913200	0.219100	0.396800
C281	C28	0.510300	0.986900	0.469400
H71	H7	0.179000	0.106000	0.487000
H81	H8	0.854000	0.253000	0.373000
Y51	Y5	0.133860	0.334800	0.642420
O251	O25	0.293300	0.436300	0.683600
O261	O26	0.892900	0.316100	0.617700
O271	O27	0.057000	0.469600	0.605600
O281	O28	0.936000	0.540400	0.730100
O291	O29	0.812600	0.237000	0.543600
O301	O30	0.025200	0.415100	0.709500
O311	O31	0.973200	0.596500	0.626000
N91	N9	0.374900	0.331200	0.606600
N101	N10	0.547700	0.266800	0.558600
C291	C29	0.474600	0.371900	0.640700
C301	C30	0.797300	0.285700	0.583500
C311	C31	0.615400	0.362500	0.633500
C321	C32	0.646700	0.307800	0.593200
O321	O32	0.514900	0.449900	0.725300
C331	C33	0.425900	0.424300	0.688000
C341	C34	0.416600	0.280700	0.567400
C351	C35	0.005800	0.522300	0.637600
C361	C36	0.986500	0.490100	0.697800
H91	H9	0.684000	0.386000	0.655000
H101	H10	0.344000	0.258000	0.548000
Y61	Y6	0.134490	0.321870	0.307010
O331	O33	0.292800	0.422900	0.349500
O341	O34	0.893600	0.307800	0.283000
O351	O35	0.812300	0.229500	0.207700
N111	N11	0.376900	0.321800	0.271900
N121	N12	0.550100	0.258600	0.222600
C371	C37	0.474700	0.364000	0.304500
C381	C38	0.797800	0.277500	0.247900
C391	C39	0.616700	0.355300	0.297900
C401	C40	0.648900	0.300800	0.256600
O361	O36	0.512700	0.440800	0.390500
C411	C41	0.424200	0.413900	0.351100
C421	C42	0.419800	0.271500	0.231900
H111	H11	0.701000	0.384000	0.323000
H121	H12	0.350000	0.241000	0.209000
Y71	Y7	0.130810	0.325420	0.978010
O371	O37	0.288300	0.428900	0.018300
O381	O38	0.887900	0.306800	0.955100
O391	O39	0.049400	0.457200	0.938100
O401	O40	0.813200	0.245800	0.873000
O411	O41	0.981700	0.588400	0.956500
N131	N13	0.370300	0.328100	0.938600
N141	N14	0.546100	0.268000	0.888300
C431	C43	0.469900	0.367700	0.973900
C441	C44	0.794600	0.284400	0.917100
C451	C45	0.611800	0.358800	0.968000
C461	C46	0.644800	0.306100	0.925300
O421	O42	0.509000	0.442800	0.059100
C471	C47	0.419000	0.417900	0.020600
C481	C48	0.413200	0.280900	0.896800
C491	C49	0.010300	0.513100	0.969400
H131	H13	0.679000	0.394000	0.987000
H141	H14	0.354000	0.247000	0.873000
Y81	Y8	0.633860	0.165200	0.142420
O431	O43	0.793300	0.063700	0.183600
O441	O44	0.392900	0.183900	0.117700
O451	O45	0.557000	0.030400	0.105600
O461	O46	0.436000	0.959600	0.230100
O471	O47	0.312600	0.263000	0.043600
O481	O48	0.525200	0.084900	0.209500
O491	O49	0.473200	0.903500	0.126000
N151	N15	0.874900	0.168800	0.106600
N161	N16	0.047700	0.233200	0.058600
C501	C50	0.974600	0.128100	0.140700
C511	C51	0.297300	0.214300	0.083500
C521	C52	0.115400	0.137500	0.133500
C531	C53	0.146700	0.192200	0.093200
O501	O50	0.014900	0.050100	0.225300
C541	C54	0.925900	0.075700	0.188000
C551	C55	0.916600	0.219300	0.067400
C561	C56	0.505800	0.977700	0.137600
C571	C57	0.486500	0.009900	0.197800
H151	H15	0.184000	0.114000	0.155000
H161	H16	0.844000	0.242000	0.048000
Y91	Y9	0.634490	0.178130	0.807010
O511	O51	0.792800	0.077100	0.849500
O521	O52	0.393600	0.192200	0.783000
O531	O53	0.312300	0.270500	0.707700
N171	N17	0.876900	0.178200	0.771900
N181	N18	0.050100	0.241400	0.722600
C581	C58	0.974700	0.136000	0.804500
C591	C59	0.297800	0.222500	0.747900
C601	C60	0.116700	0.144700	0.797900
C611	C61	0.148900	0.199200	0.756600
O541	O54	0.012700	0.059200	0.890500
C621	C62	0.924200	0.086100	0.851100
C631	C63	0.919800	0.228500	0.731900
H171	H17	0.201000	0.116000	0.823000
H181	H18	0.850000	0.259000	0.709000
Y101	Y10	0.369190	0.825420	0.521990
O551	O55	0.211700	0.928900	0.481700
O561	O56	0.612100	0.806800	0.544900
O571	O57	0.450600	0.957200	0.561900
O581	O58	0.686800	0.745800	0.627000
O591	O59	0.518300	0.088400	0.543500
N191	N19	0.129700	0.828100	0.561400
N201	N20	0.953900	0.768000	0.611700
C641	C64	0.030100	0.867700	0.526100
C651	C65	0.705400	0.784400	0.582900
C661	C66	0.888200	0.858800	0.532000
C671	C67	0.855200	0.806100	0.574700
O601	O60	0.991000	0.942800	0.440900
C681	C68	0.081000	0.917900	0.479400
C691	C69	0.086800	0.780900	0.603200
C701	C70	0.489700	0.013100	0.530600
H191	H19	0.821000	0.894000	0.513000
H201	H20	0.146000	0.747000	0.627000
Y111	Y11	0.866140	0.665200	0.357580
O611	O61	0.706700	0.563700	0.316400
O621	O62	0.107100	0.683900	0.382300
O631	O63	0.943000	0.530400	0.394400
O641	O64	0.064000	0.459600	0.269900
O651	O65	0.187400	0.763000	0.456400
O661	O66	0.974800	0.584900	0.290500
O671	O67	0.026800	0.403500	0.374000
N211	N21	0.625100	0.668800	0.393400
N221	N22	0.452300	0.733200	0.441400
C711	C71	0.525400	0.628100	0.359300
C721	C72	0.202700	0.714300	0.416500
C731	C73	0.384600	0.637500	0.366500
C741	C74	0.353300	0.692200	0.406800
O681	O68	0.485100	0.550100	0.274700
C751	C75	0.574100	0.575700	0.312000
C761	C76	0.583400	0.719300	0.432600
C771	C77	0.994200	0.477700	0.362400
C781	C78	0.013500	0.509900	0.302200
H211	H21	0.316000	0.614000	0.345000
H221	H22	0.656000	0.742000	0.452000
Y121	Y12	0.865510	0.678130	0.692990
O691	O69	0.707200	0.577100	0.650500
O701	O70	0.106400	0.692200	0.717000
O711	O71	0.187700	0.770500	0.792300
N231	N23	0.623100	0.678200	0.728100
N241	N24	0.449900	0.741400	0.777400
C791	C79	0.525300	0.636000	0.695500
C801	C80	0.202200	0.722500	0.752100
C811	C81	0.383300	0.644700	0.702100
C821	C82	0.351100	0.699200	0.743400
O721	O72	0.487300	0.559200	0.609500
C831	C83	0.575800	0.586100	0.648900
C841	C84	0.580200	0.728500	0.768100
H231	H23	0.299000	0.616000	0.677000
H241	H24	0.650000	0.759000	0.791000
