data_XUDNUH_clean_PM
_symmetry_space_group_name_H-M	'P1'
_cell_length_a	26.600000
_cell_length_b	26.600000
_cell_length_c	27.120000
_cell_angle_alpha	90.000000
_cell_angle_beta	90.000000
_cell_angle_gamma	90.000000
_symmetry_Int_Tables_number 1

loop_
_symmetry_equiv_pos_as_xyz
'x,y,z'

loop_
_atom_site_label
_atom_site_type_symbol
_atom_site_fract_x
_atom_site_fract_y
_atom_site_fract_z
N11	N1	0.709660	0.894120	0.196240
O11	O1	0.930600	0.975590	0.237400
O21	O2	0.929030	0.980800	0.154570
O31	O3	0.565330	0.014750	0.050780
O41	O4	0.527900	0.938410	0.050370
C11	C1	0.909420	0.971460	0.196140
C21	C2	0.856290	0.953320	0.196500
C31	C3	0.830590	0.946700	0.151610
H11	H1	0.846000	0.954800	0.121900
C41	C4	0.781970	0.927890	0.152290
H21	H2	0.764700	0.923600	0.122800
C51	C5	0.758900	0.915530	0.196070
C61	C6	0.784410	0.921880	0.239430
H31	H3	0.769100	0.913100	0.269000
C71	C7	0.832630	0.941240	0.239780
H41	H4	0.849100	0.946100	0.269600
C81	C8	0.672330	0.913180	0.164890
C91	C9	0.669250	0.963640	0.153390
H51	H5	0.692600	0.985600	0.167200
C101	C10	0.634090	0.982270	0.123230
H61	H6	0.632700	0.016700	0.117200
C111	C11	0.598910	0.949660	0.100400
C121	C12	0.601140	0.899650	0.112660
H71	H7	0.577100	0.877900	0.099700
C131	C13	0.637140	0.880600	0.142980
H81	H8	0.638500	0.846200	0.149200
C141	C14	0.561430	0.969840	0.064240
C151	C15	0.702210	0.849040	0.224080
C161	C16	0.738880	0.811880	0.224400
H91	H9	0.768700	0.816600	0.207000
N21	N2	0.290340	0.105880	0.196240
O51	O5	0.069400	0.024410	0.237400
O61	O6	0.070970	0.019200	0.154570
O71	O7	0.434670	0.985250	0.050780
O81	O8	0.472100	0.061590	0.050370
C171	C17	0.090580	0.028540	0.196140
C181	C18	0.143710	0.046680	0.196500
C191	C19	0.169410	0.053300	0.151610
H101	H10	0.154000	0.045200	0.121900
C201	C20	0.218030	0.072110	0.152290
H111	H11	0.235300	0.076400	0.122800
C211	C21	0.241100	0.084470	0.196070
C221	C22	0.215590	0.078120	0.239430
H121	H12	0.230900	0.086900	0.269000
C231	C23	0.167370	0.058760	0.239780
H131	H13	0.150900	0.053900	0.269600
C241	C24	0.327670	0.086820	0.164890
C251	C25	0.330750	0.036360	0.153390
H141	H14	0.307400	0.014400	0.167200
C261	C26	0.365910	0.017730	0.123230
H151	H15	0.367300	0.983300	0.117200
C271	C27	0.401090	0.050340	0.100400
C281	C28	0.398860	0.100350	0.112660
H161	H16	0.422900	0.122100	0.099700
C291	C29	0.362860	0.119400	0.142980
H171	H17	0.361500	0.153800	0.149200
C301	C30	0.438570	0.030160	0.064240
C311	C31	0.297790	0.150960	0.224080
C321	C32	0.261120	0.188120	0.224400
H181	H18	0.231300	0.183400	0.207000
N31	N3	0.105880	0.709660	0.196240
O91	O9	0.024410	0.930600	0.237400
O101	O10	0.019200	0.929030	0.154570
O111	O11	0.985250	0.565330	0.050780
O121	O12	0.061590	0.527900	0.050370
C331	C33	0.028540	0.909420	0.196140
C341	C34	0.046680	0.856290	0.196500
C351	C35	0.053300	0.830590	0.151610
H191	H19	0.045200	0.846000	0.121900
C361	C36	0.072110	0.781970	0.152290
H201	H20	0.076400	0.764700	0.122800
C371	C37	0.084470	0.758900	0.196070
C381	C38	0.078120	0.784410	0.239430
H211	H21	0.086900	0.769100	0.269000
C391	C39	0.058760	0.832630	0.239780
H221	H22	0.053900	0.849100	0.269600
C401	C40	0.086820	0.672330	0.164890
C411	C41	0.036360	0.669250	0.153390
H231	H23	0.014400	0.692600	0.167200
C421	C42	0.017730	0.634090	0.123230
H241	H24	0.983300	0.632700	0.117200
C431	C43	0.050340	0.598910	0.100400
C441	C44	0.100350	0.601140	0.112660
H251	H25	0.122100	0.577100	0.099700
C451	C45	0.119400	0.637140	0.142980
H261	H26	0.153800	0.638500	0.149200
C461	C46	0.030160	0.561430	0.064240
C471	C47	0.150960	0.702210	0.224080
C481	C48	0.188120	0.738880	0.224400
H271	H27	0.183400	0.768700	0.207000
N41	N4	0.894120	0.290340	0.196240
O131	O13	0.975590	0.069400	0.237400
O141	O14	0.980800	0.070970	0.154570
O151	O15	0.014750	0.434670	0.050780
O161	O16	0.938410	0.472100	0.050370
C491	C49	0.971460	0.090580	0.196140
C501	C50	0.953320	0.143710	0.196500
C511	C51	0.946700	0.169410	0.151610
H281	H28	0.954800	0.154000	0.121900
C521	C52	0.927890	0.218030	0.152290
H291	H29	0.923600	0.235300	0.122800
C531	C53	0.915530	0.241100	0.196070
C541	C54	0.921880	0.215590	0.239430
H301	H30	0.913100	0.230900	0.269000
C551	C55	0.941240	0.167370	0.239780
H311	H31	0.946100	0.150900	0.269600
C561	C56	0.913180	0.327670	0.164890
C571	C57	0.963640	0.330750	0.153390
H321	H32	0.985600	0.307400	0.167200
C581	C58	0.982270	0.365910	0.123230
H331	H33	0.016700	0.367300	0.117200
C591	C59	0.949660	0.401090	0.100400
C601	C60	0.899650	0.398860	0.112660
H341	H34	0.877900	0.422900	0.099700
C611	C61	0.880600	0.362860	0.142980
H351	H35	0.846200	0.361500	0.149200
C621	C62	0.969840	0.438570	0.064240
C631	C63	0.849040	0.297790	0.224080
C641	C64	0.811880	0.261120	0.224400
H361	H36	0.816600	0.231300	0.207000
N51	N5	0.790340	0.394120	0.303760
O171	O17	0.569400	0.475590	0.262600
O181	O18	0.570970	0.480800	0.345430
O191	O19	0.934670	0.514750	0.449220
O201	O20	0.972100	0.438410	0.449630
C651	C65	0.590580	0.471460	0.303860
C661	C66	0.643710	0.453320	0.303500
C671	C67	0.669410	0.446700	0.348390
H371	H37	0.654000	0.454800	0.378100
C681	C68	0.718030	0.427890	0.347710
H381	H38	0.735300	0.423600	0.377200
C691	C69	0.741100	0.415530	0.303930
C701	C70	0.715590	0.421880	0.260570
H391	H39	0.730900	0.413100	0.231000
C711	C71	0.667370	0.441240	0.260220
H401	H40	0.650900	0.446100	0.230400
C721	C72	0.827670	0.413180	0.335110
C731	C73	0.830750	0.463640	0.346610
H411	H41	0.807400	0.485600	0.332800
C741	C74	0.865910	0.482270	0.376770
H421	H42	0.867300	0.516700	0.382800
C751	C75	0.901090	0.449660	0.399600
C761	C76	0.898860	0.399650	0.387340
H431	H43	0.922900	0.377900	0.400300
C771	C77	0.862860	0.380600	0.357020
H441	H44	0.861500	0.346200	0.350800
C781	C78	0.938570	0.469840	0.435760
C791	C79	0.797790	0.349040	0.275920
C801	C80	0.761120	0.311880	0.275600
H451	H45	0.731300	0.316600	0.293000
N61	N6	0.209660	0.605880	0.303760
O211	O21	0.430600	0.524410	0.262600
O221	O22	0.429030	0.519200	0.345430
O231	O23	0.065330	0.485250	0.449220
O241	O24	0.027900	0.561590	0.449630
C811	C81	0.409420	0.528540	0.303860
C821	C82	0.356290	0.546680	0.303500
C831	C83	0.330590	0.553300	0.348390
H461	H46	0.346000	0.545200	0.378100
C841	C84	0.281970	0.572110	0.347710
H471	H47	0.264700	0.576400	0.377200
C851	C85	0.258900	0.584470	0.303930
C861	C86	0.284410	0.578120	0.260570
H481	H48	0.269100	0.586900	0.231000
C871	C87	0.332630	0.558760	0.260220
H491	H49	0.349100	0.553900	0.230400
C881	C88	0.172330	0.586820	0.335110
C891	C89	0.169250	0.536360	0.346610
H501	H50	0.192600	0.514400	0.332800
C901	C90	0.134090	0.517730	0.376770
H511	H51	0.132700	0.483300	0.382800
C911	C91	0.098910	0.550340	0.399600
C921	C92	0.101140	0.600350	0.387340
H521	H52	0.077100	0.622100	0.400300
C931	C93	0.137140	0.619400	0.357020
H531	H53	0.138500	0.653800	0.350800
C941	C94	0.061430	0.530160	0.435760
C951	C95	0.202210	0.650960	0.275920
C961	C96	0.238880	0.688120	0.275600
H541	H54	0.268700	0.683400	0.293000
N71	N7	0.394120	0.209660	0.303760
O251	O25	0.475590	0.430600	0.262600
O261	O26	0.480800	0.429030	0.345430
O271	O27	0.514750	0.065330	0.449220
O281	O28	0.438410	0.027900	0.449630
C971	C97	0.471460	0.409420	0.303860
C981	C98	0.453320	0.356290	0.303500
C991	C99	0.446700	0.330590	0.348390
H551	H55	0.454800	0.346000	0.378100
C1001	C100	0.427890	0.281970	0.347710
H561	H56	0.423600	0.264700	0.377200
C1011	C101	0.415530	0.258900	0.303930
C1021	C102	0.421880	0.284410	0.260570
H571	H57	0.413100	0.269100	0.231000
C1031	C103	0.441240	0.332630	0.260220
H581	H58	0.446100	0.349100	0.230400
C1041	C104	0.413180	0.172330	0.335110
C1051	C105	0.463640	0.169250	0.346610
H591	H59	0.485600	0.192600	0.332800
C1061	C106	0.482270	0.134090	0.376770
H601	H60	0.516700	0.132700	0.382800
C1071	C107	0.449660	0.098910	0.399600
C1081	C108	0.399650	0.101140	0.387340
H611	H61	0.377900	0.077100	0.400300
C1091	C109	0.380600	0.137140	0.357020
H621	H62	0.346200	0.138500	0.350800
C1101	C110	0.469840	0.061430	0.435760
C1111	C111	0.349040	0.202210	0.275920
C1121	C112	0.311880	0.238880	0.275600
H631	H63	0.316600	0.268700	0.293000
N81	N8	0.605880	0.790340	0.303760
O291	O29	0.524410	0.569400	0.262600
O301	O30	0.519200	0.570970	0.345430
O311	O31	0.485250	0.934670	0.449220
O321	O32	0.561590	0.972100	0.449630
C1131	C113	0.528540	0.590580	0.303860
C1141	C114	0.546680	0.643710	0.303500
C1151	C115	0.553300	0.669410	0.348390
H641	H64	0.545200	0.654000	0.378100
C1161	C116	0.572110	0.718030	0.347710
H651	H65	0.576400	0.735300	0.377200
C1171	C117	0.584470	0.741100	0.303930
C1181	C118	0.578120	0.715590	0.260570
H661	H66	0.586900	0.730900	0.231000
C1191	C119	0.558760	0.667370	0.260220
H671	H67	0.553900	0.650900	0.230400
C1201	C120	0.586820	0.827670	0.335110
C1211	C121	0.536360	0.830750	0.346610
H681	H68	0.514400	0.807400	0.332800
C1221	C122	0.517730	0.865910	0.376770
H691	H69	0.483300	0.867300	0.382800
C1231	C123	0.550340	0.901090	0.399600
C1241	C124	0.600350	0.898860	0.387340
H701	H70	0.622100	0.922900	0.400300
C1251	C125	0.619400	0.862860	0.357020
H711	H71	0.653800	0.861500	0.350800
C1261	C126	0.530160	0.938570	0.435760
C1271	C127	0.650960	0.797790	0.275920
C1281	C128	0.688120	0.761120	0.275600
H721	H72	0.683400	0.731300	0.293000
N91	N9	0.290340	0.105880	0.803760
O331	O33	0.069400	0.024410	0.762600
O341	O34	0.070970	0.019200	0.845430
O351	O35	0.434670	0.985250	0.949220
O361	O36	0.472100	0.061590	0.949630
C1291	C129	0.090580	0.028540	0.803860
C1301	C130	0.143710	0.046680	0.803500
C1311	C131	0.169410	0.053300	0.848390
H731	H73	0.154000	0.045200	0.878100
C1321	C132	0.218030	0.072110	0.847710
H741	H74	0.235300	0.076400	0.877200
C1331	C133	0.241100	0.084470	0.803930
C1341	C134	0.215590	0.078120	0.760570
H751	H75	0.230900	0.086900	0.731000
C1351	C135	0.167370	0.058760	0.760220
H761	H76	0.150900	0.053900	0.730400
C1361	C136	0.327670	0.086820	0.835110
C1371	C137	0.330750	0.036360	0.846610
H771	H77	0.307400	0.014400	0.832800
C1381	C138	0.365910	0.017730	0.876770
H781	H78	0.367300	0.983300	0.882800
C1391	C139	0.401090	0.050340	0.899600
C1401	C140	0.398860	0.100350	0.887340
H791	H79	0.422900	0.122100	0.900300
C1411	C141	0.362860	0.119400	0.857020
H801	H80	0.361500	0.153800	0.850800
C1421	C142	0.438570	0.030160	0.935760
C1431	C143	0.297790	0.150960	0.775920
C1441	C144	0.261120	0.188120	0.775600
H811	H81	0.231300	0.183400	0.793000
N101	N10	0.709660	0.894120	0.803760
O371	O37	0.930600	0.975590	0.762600
O381	O38	0.929030	0.980800	0.845430
O391	O39	0.565330	0.014750	0.949220
O401	O40	0.527900	0.938410	0.949630
C1451	C145	0.909420	0.971460	0.803860
C1461	C146	0.856290	0.953320	0.803500
C1471	C147	0.830590	0.946700	0.848390
H821	H82	0.846000	0.954800	0.878100
C1481	C148	0.781970	0.927890	0.847710
H831	H83	0.764700	0.923600	0.877200
C1491	C149	0.758900	0.915530	0.803930
C1501	C150	0.784410	0.921880	0.760570
H841	H84	0.769100	0.913100	0.731000
C1511	C151	0.832630	0.941240	0.760220
H851	H85	0.849100	0.946100	0.730400
C1521	C152	0.672330	0.913180	0.835110
C1531	C153	0.669250	0.963640	0.846610
H861	H86	0.692600	0.985600	0.832800
C1541	C154	0.634090	0.982270	0.876770
H871	H87	0.632700	0.016700	0.882800
C1551	C155	0.598910	0.949660	0.899600
C1561	C156	0.601140	0.899650	0.887340
H881	H88	0.577100	0.877900	0.900300
C1571	C157	0.637140	0.880600	0.857020
H891	H89	0.638500	0.846200	0.850800
C1581	C158	0.561430	0.969840	0.935760
C1591	C159	0.702210	0.849040	0.775920
C1601	C160	0.738880	0.811880	0.775600
H901	H90	0.768700	0.816600	0.793000
N111	N11	0.894120	0.290340	0.803760
O411	O41	0.975590	0.069400	0.762600
O421	O42	0.980800	0.070970	0.845430
O431	O43	0.014750	0.434670	0.949220
O441	O44	0.938410	0.472100	0.949630
C1611	C161	0.971460	0.090580	0.803860
C1621	C162	0.953320	0.143710	0.803500
C1631	C163	0.946700	0.169410	0.848390
H911	H91	0.954800	0.154000	0.878100
C1641	C164	0.927890	0.218030	0.847710
H921	H92	0.923600	0.235300	0.877200
C1651	C165	0.915530	0.241100	0.803930
C1661	C166	0.921880	0.215590	0.760570
H931	H93	0.913100	0.230900	0.731000
C1671	C167	0.941240	0.167370	0.760220
H941	H94	0.946100	0.150900	0.730400
C1681	C168	0.913180	0.327670	0.835110
C1691	C169	0.963640	0.330750	0.846610
H951	H95	0.985600	0.307400	0.832800
C1701	C170	0.982270	0.365910	0.876770
H961	H96	0.016700	0.367300	0.882800
C1711	C171	0.949660	0.401090	0.899600
C1721	C172	0.899650	0.398860	0.887340
H971	H97	0.877900	0.422900	0.900300
C1731	C173	0.880600	0.362860	0.857020
H981	H98	0.846200	0.361500	0.850800
C1741	C174	0.969840	0.438570	0.935760
C1751	C175	0.849040	0.297790	0.775920
C1761	C176	0.811880	0.261120	0.775600
H991	H99	0.816600	0.231300	0.793000
N121	N12	0.105880	0.709660	0.803760
O451	O45	0.024410	0.930600	0.762600
O461	O46	0.019200	0.929030	0.845430
O471	O47	0.985250	0.565330	0.949220
O481	O48	0.061590	0.527900	0.949630
C1771	C177	0.028540	0.909420	0.803860
C1781	C178	0.046680	0.856290	0.803500
C1791	C179	0.053300	0.830590	0.848390
H1001	H100	0.045200	0.846000	0.878100
C1801	C180	0.072110	0.781970	0.847710
H1011	H101	0.076400	0.764700	0.877200
C1811	C181	0.084470	0.758900	0.803930
C1821	C182	0.078120	0.784410	0.760570
H1021	H102	0.086900	0.769100	0.731000
C1831	C183	0.058760	0.832630	0.760220
H1031	H103	0.053900	0.849100	0.730400
C1841	C184	0.086820	0.672330	0.835110
C1851	C185	0.036360	0.669250	0.846610
H1041	H104	0.014400	0.692600	0.832800
C1861	C186	0.017730	0.634090	0.876770
H1051	H105	0.983300	0.632700	0.882800
C1871	C187	0.050340	0.598910	0.899600
C1881	C188	0.100350	0.601140	0.887340
H1061	H106	0.122100	0.577100	0.900300
C1891	C189	0.119400	0.637140	0.857020
H1071	H107	0.153800	0.638500	0.850800
C1901	C190	0.030160	0.561430	0.935760
C1911	C191	0.150960	0.702210	0.775920
C1921	C192	0.188120	0.738880	0.775600
H1081	H108	0.183400	0.768700	0.793000
N131	N13	0.209660	0.605880	0.696240
O491	O49	0.430600	0.524410	0.737400
O501	O50	0.429030	0.519200	0.654570
O511	O51	0.065330	0.485250	0.550780
O521	O52	0.027900	0.561590	0.550370
C1931	C193	0.409420	0.528540	0.696140
C1941	C194	0.356290	0.546680	0.696500
C1951	C195	0.330590	0.553300	0.651610
H1091	H109	0.346000	0.545200	0.621900
C1961	C196	0.281970	0.572110	0.652290
H1101	H110	0.264700	0.576400	0.622800
C1971	C197	0.258900	0.584470	0.696070
C1981	C198	0.284410	0.578120	0.739430
H1111	H111	0.269100	0.586900	0.769000
C1991	C199	0.332630	0.558760	0.739780
H1121	H112	0.349100	0.553900	0.769600
C2001	C200	0.172330	0.586820	0.664890
C2011	C201	0.169250	0.536360	0.653390
H1131	H113	0.192600	0.514400	0.667200
C2021	C202	0.134090	0.517730	0.623230
H1141	H114	0.132700	0.483300	0.617200
C2031	C203	0.098910	0.550340	0.600400
C2041	C204	0.101140	0.600350	0.612660
H1151	H115	0.077100	0.622100	0.599700
C2051	C205	0.137140	0.619400	0.642980
H1161	H116	0.138500	0.653800	0.649200
C2061	C206	0.061430	0.530160	0.564240
C2071	C207	0.202210	0.650960	0.724080
C2081	C208	0.238880	0.688120	0.724400
H1171	H117	0.268700	0.683400	0.707000
N141	N14	0.790340	0.394120	0.696240
O531	O53	0.569400	0.475590	0.737400
O541	O54	0.570970	0.480800	0.654570
O551	O55	0.934670	0.514750	0.550780
O561	O56	0.972100	0.438410	0.550370
C2091	C209	0.590580	0.471460	0.696140
C2101	C210	0.643710	0.453320	0.696500
C2111	C211	0.669410	0.446700	0.651610
H1181	H118	0.654000	0.454800	0.621900
C2121	C212	0.718030	0.427890	0.652290
H1191	H119	0.735300	0.423600	0.622800
C2131	C213	0.741100	0.415530	0.696070
C2141	C214	0.715590	0.421880	0.739430
H1201	H120	0.730900	0.413100	0.769000
C2151	C215	0.667370	0.441240	0.739780
H1211	H121	0.650900	0.446100	0.769600
C2161	C216	0.827670	0.413180	0.664890
C2171	C217	0.830750	0.463640	0.653390
H1221	H122	0.807400	0.485600	0.667200
C2181	C218	0.865910	0.482270	0.623230
H1231	H123	0.867300	0.516700	0.617200
C2191	C219	0.901090	0.449660	0.600400
C2201	C220	0.898860	0.399650	0.612660
H1241	H124	0.922900	0.377900	0.599700
C2211	C221	0.862860	0.380600	0.642980
H1251	H125	0.861500	0.346200	0.649200
C2221	C222	0.938570	0.469840	0.564240
C2231	C223	0.797790	0.349040	0.724080
C2241	C224	0.761120	0.311880	0.724400
H1261	H126	0.731300	0.316600	0.707000
N151	N15	0.605880	0.790340	0.696240
O571	O57	0.524410	0.569400	0.737400
O581	O58	0.519200	0.570970	0.654570
O591	O59	0.485250	0.934670	0.550780
O601	O60	0.561590	0.972100	0.550370
C2251	C225	0.528540	0.590580	0.696140
C2261	C226	0.546680	0.643710	0.696500
C2271	C227	0.553300	0.669410	0.651610
H1271	H127	0.545200	0.654000	0.621900
C2281	C228	0.572110	0.718030	0.652290
H1281	H128	0.576400	0.735300	0.622800
C2291	C229	0.584470	0.741100	0.696070
C2301	C230	0.578120	0.715590	0.739430
H1291	H129	0.586900	0.730900	0.769000
C2311	C231	0.558760	0.667370	0.739780
H1301	H130	0.553900	0.650900	0.769600
C2321	C232	0.586820	0.827670	0.664890
C2331	C233	0.536360	0.830750	0.653390
H1311	H131	0.514400	0.807400	0.667200
C2341	C234	0.517730	0.865910	0.623230
H1321	H132	0.483300	0.867300	0.617200
C2351	C235	0.550340	0.901090	0.600400
C2361	C236	0.600350	0.898860	0.612660
H1331	H133	0.622100	0.922900	0.599700
C2371	C237	0.619400	0.862860	0.642980
H1341	H134	0.653800	0.861500	0.649200
C2381	C238	0.530160	0.938570	0.564240
C2391	C239	0.650960	0.797790	0.724080
C2401	C240	0.688120	0.761120	0.724400
H1351	H135	0.683400	0.731300	0.707000
N161	N16	0.394120	0.209660	0.696240
O611	O61	0.475590	0.430600	0.737400
O621	O62	0.480800	0.429030	0.654570
O631	O63	0.514750	0.065330	0.550780
O641	O64	0.438410	0.027900	0.550370
C2411	C241	0.471460	0.409420	0.696140
C2421	C242	0.453320	0.356290	0.696500
C2431	C243	0.446700	0.330590	0.651610
H1361	H136	0.454800	0.346000	0.621900
C2441	C244	0.427890	0.281970	0.652290
H1371	H137	0.423600	0.264700	0.622800
C2451	C245	0.415530	0.258900	0.696070
C2461	C246	0.421880	0.284410	0.739430
H1381	H138	0.413100	0.269100	0.769000
C2471	C247	0.441240	0.332630	0.739780
H1391	H139	0.446100	0.349100	0.769600
C2481	C248	0.413180	0.172330	0.664890
C2491	C249	0.463640	0.169250	0.653390
H1401	H140	0.485600	0.192600	0.667200
C2501	C250	0.482270	0.134090	0.623230
H1411	H141	0.516700	0.132700	0.617200
C2511	C251	0.449660	0.098910	0.600400
C2521	C252	0.399650	0.101140	0.612660
H1421	H142	0.377900	0.077100	0.599700
C2531	C253	0.380600	0.137140	0.642980
H1431	H143	0.346200	0.138500	0.649200
C2541	C254	0.469840	0.061430	0.564240
C2551	C255	0.349040	0.202210	0.724080
C2561	C256	0.311880	0.238880	0.724400
H1441	H144	0.316600	0.268700	0.707000
Cu11	Cu1	0.000000	0.000000	0.147560
Cu21	Cu2	0.000000	0.000000	0.244790
Cu31	Cu3	0.500000	0.500000	0.352440
Cu41	Cu4	0.500000	0.500000	0.255210
Cu51	Cu5	0.000000	0.000000	0.852440
Cu61	Cu6	0.000000	0.000000	0.755210
Cu71	Cu7	0.500000	0.500000	0.647560
Cu81	Cu8	0.500000	0.500000	0.744790
Cu91	Cu9	0.522090	0.044210	0.000000
Cu101	Cu10	0.477910	0.955790	0.000000
Cu111	Cu11	0.955790	0.522090	0.000000
Cu121	Cu12	0.044210	0.477910	0.000000
Cu131	Cu13	0.977910	0.544210	0.500000
Cu141	Cu14	0.022090	0.455790	0.500000
Cu151	Cu15	0.544210	0.022090	0.500000
Cu161	Cu16	0.455790	0.977910	0.500000
C2571	C257	0.658700	0.841300	0.250000
H1451	H145	0.634000	0.866000	0.250000
C2581	C258	0.731250	0.768750	0.250000
H1461	H146	0.756000	0.744000	0.250000
C2591	C259	0.341300	0.158700	0.250000
H1471	H147	0.366000	0.134000	0.250000
C2601	C260	0.268750	0.231250	0.250000
H1481	H148	0.244000	0.256000	0.250000
C2611	C261	0.158700	0.658700	0.250000
H1491	H149	0.134000	0.634000	0.250000
C2621	C262	0.231250	0.731250	0.250000
H1501	H150	0.256000	0.756000	0.250000
C2631	C263	0.841300	0.341300	0.250000
H1511	H151	0.866000	0.366000	0.250000
C2641	C264	0.768750	0.268750	0.250000
H1521	H152	0.744000	0.244000	0.250000
C2651	C265	0.341300	0.158700	0.750000
H1531	H153	0.366000	0.134000	0.750000
C2661	C266	0.268750	0.231250	0.750000
H1541	H154	0.244000	0.256000	0.750000
C2671	C267	0.658700	0.841300	0.750000
H1551	H155	0.634000	0.866000	0.750000
C2681	C268	0.731250	0.768750	0.750000
H1561	H156	0.756000	0.744000	0.750000
C2691	C269	0.841300	0.341300	0.750000
H1571	H157	0.866000	0.366000	0.750000
C2701	C270	0.768750	0.268750	0.750000
H1581	H158	0.744000	0.244000	0.750000
C2711	C271	0.158700	0.658700	0.750000
H1591	H159	0.134000	0.634000	0.750000
C2721	C272	0.231250	0.731250	0.750000
H1601	H160	0.256000	0.756000	0.750000
