data_XUDYEC_clean_PM
_symmetry_space_group_name_H-M	'P1'
_cell_length_a	36.417000
_cell_length_b	9.831000
_cell_length_c	10.995000
_cell_angle_alpha	90.000000
_cell_angle_beta	106.189000
_cell_angle_gamma	90.000000
_symmetry_Int_Tables_number 1

loop_
_symmetry_equiv_pos_as_xyz
'x,y,z'

loop_
_atom_site_label
_atom_site_type_symbol
_atom_site_fract_x
_atom_site_fract_y
_atom_site_fract_z
Cd11	Cd1	0.210250	0.668230	0.366600
O11	O1	0.153340	0.697300	0.203400
C11	C1	0.020600	0.515100	0.035600
C21	C2	0.137570	0.594300	0.235000
C31	C3	0.097500	0.562200	0.163800
C41	C4	0.041500	0.611900	0.994900
H11	H1	0.029900	0.662500	0.923000
C51	C5	0.078900	0.636000	0.057000
H21	H2	0.092100	0.703200	0.027200
C61	C6	0.077100	0.466700	0.205400
H31	H3	0.088600	0.416900	0.278000
N11	N1	0.236200	0.568300	0.555500
C71	C7	0.039400	0.442900	0.140700
H41	H4	0.026300	0.374800	0.169700
C81	C8	0.222330	0.465400	0.605200
O21	O2	0.154020	0.522900	0.323500
N21	N2	0.233550	0.465600	0.732200
N31	N3	0.258140	0.641200	0.657000
C91	C9	0.255390	0.579000	0.758100
H51	H5	0.267200	0.609100	0.839800
N41	N4	0.200000	0.365200	0.536100
H61	H6	0.194200	0.367000	0.454700
H71	H7	0.191700	0.300400	0.573900
Cd21	Cd2	0.710250	0.168230	0.366600
O31	O3	0.653340	0.197300	0.203400
C101	C10	0.520600	0.015100	0.035600
C111	C11	0.637570	0.094300	0.235000
C121	C12	0.597500	0.062200	0.163800
C131	C13	0.541500	0.111900	0.994900
H81	H8	0.529900	0.162500	0.923000
C141	C14	0.578900	0.136000	0.057000
H91	H9	0.592100	0.203200	0.027200
C151	C15	0.577100	0.966700	0.205400
H101	H10	0.588600	0.916900	0.278000
N51	N5	0.736200	0.068300	0.555500
C161	C16	0.539400	0.942900	0.140700
H111	H11	0.526300	0.874800	0.169700
C171	C17	0.722330	0.965400	0.605200
O41	O4	0.654020	0.022900	0.323500
N61	N6	0.733550	0.965600	0.732200
N71	N7	0.758140	0.141200	0.657000
C181	C18	0.755390	0.079000	0.758100
H121	H12	0.767200	0.109100	0.839800
N81	N8	0.700000	0.865200	0.536100
H131	H13	0.694200	0.867000	0.454700
H141	H14	0.691700	0.800400	0.573900
Cd31	Cd3	0.789750	0.668230	0.133400
O51	O5	0.846660	0.697300	0.296600
C191	C19	0.979400	0.515100	0.464400
C201	C20	0.862430	0.594300	0.265000
C211	C21	0.902500	0.562200	0.336200
C221	C22	0.958500	0.611900	0.505100
H151	H15	0.970100	0.662500	0.577000
C231	C23	0.921100	0.636000	0.443000
H161	H16	0.907900	0.703200	0.472800
C241	C24	0.922900	0.466700	0.294600
H171	H17	0.911400	0.416900	0.222000
N91	N9	0.763800	0.568300	0.944500
C251	C25	0.960600	0.442900	0.359300
H181	H18	0.973700	0.374800	0.330300
C261	C26	0.777670	0.465400	0.894800
O61	O6	0.845980	0.522900	0.176500
N101	N10	0.766450	0.465600	0.767800
N111	N11	0.741860	0.641200	0.843000
C271	C27	0.744610	0.579000	0.741900
H191	H19	0.732800	0.609100	0.660200
N121	N12	0.800000	0.365200	0.963900
H201	H20	0.805800	0.367000	0.045300
H211	H21	0.808300	0.300400	0.926100
Cd41	Cd4	0.289750	0.168230	0.133400
O71	O7	0.346660	0.197300	0.296600
C281	C28	0.479400	0.015100	0.464400
C291	C29	0.362430	0.094300	0.265000
C301	C30	0.402500	0.062200	0.336200
C311	C31	0.458500	0.111900	0.505100
H221	H22	0.470100	0.162500	0.577000
C321	C32	0.421100	0.136000	0.443000
H231	H23	0.407900	0.203200	0.472800
C331	C33	0.422900	0.966700	0.294600
H241	H24	0.411400	0.916900	0.222000
N131	N13	0.263800	0.068300	0.944500
C341	C34	0.460600	0.942900	0.359300
H251	H25	0.473700	0.874800	0.330300
C351	C35	0.277670	0.965400	0.894800
O81	O8	0.345980	0.022900	0.176500
N141	N14	0.266450	0.965600	0.767800
N151	N15	0.241860	0.141200	0.843000
C361	C36	0.244610	0.079000	0.741900
H261	H26	0.232800	0.109100	0.660200
N161	N16	0.300000	0.865200	0.963900
H271	H27	0.305800	0.867000	0.045300
H281	H28	0.308300	0.800400	0.926100
Cd51	Cd5	0.789750	0.331770	0.633400
O91	O9	0.846660	0.302700	0.796600
C371	C37	0.979400	0.484900	0.964400
C381	C38	0.862430	0.405700	0.765000
C391	C39	0.902500	0.437800	0.836200
C401	C40	0.958500	0.388100	0.005100
H291	H29	0.970100	0.337500	0.077000
C411	C41	0.921100	0.364000	0.943000
H301	H30	0.907900	0.296800	0.972800
C421	C42	0.922900	0.533300	0.794600
H311	H31	0.911400	0.583100	0.722000
N171	N17	0.763800	0.431700	0.444500
C431	C43	0.960600	0.557100	0.859300
H321	H32	0.973700	0.625200	0.830300
C441	C44	0.777670	0.534600	0.394800
O101	O10	0.845980	0.477100	0.676500
N181	N18	0.766450	0.534400	0.267800
N191	N19	0.741860	0.358800	0.343000
C451	C45	0.744610	0.421000	0.241900
H331	H33	0.732800	0.390900	0.160200
N201	N20	0.800000	0.634800	0.463900
H341	H34	0.805800	0.633000	0.545300
H351	H35	0.808300	0.699600	0.426100
Cd61	Cd6	0.289750	0.831770	0.633400
O111	O11	0.346660	0.802700	0.796600
C461	C46	0.479400	0.984900	0.964400
C471	C47	0.362430	0.905700	0.765000
C481	C48	0.402500	0.937800	0.836200
C491	C49	0.458500	0.888100	0.005100
H361	H36	0.470100	0.837500	0.077000
C501	C50	0.421100	0.864000	0.943000
H371	H37	0.407900	0.796800	0.972800
C511	C51	0.422900	0.033300	0.794600
H381	H38	0.411400	0.083100	0.722000
N211	N21	0.263800	0.931700	0.444500
C521	C52	0.460600	0.057100	0.859300
H391	H39	0.473700	0.125200	0.830300
C531	C53	0.277670	0.034600	0.394800
O121	O12	0.345980	0.977100	0.676500
N221	N22	0.266450	0.034400	0.267800
N231	N23	0.241860	0.858800	0.343000
C541	C54	0.244610	0.921000	0.241900
H401	H40	0.232800	0.890900	0.160200
N241	N24	0.300000	0.134800	0.463900
H411	H41	0.305800	0.133000	0.545300
H421	H42	0.308300	0.199600	0.426100
Cd71	Cd7	0.210250	0.331770	0.866600
O131	O13	0.153340	0.302700	0.703400
C551	C55	0.020600	0.484900	0.535600
C561	C56	0.137570	0.405700	0.735000
C571	C57	0.097500	0.437800	0.663800
C581	C58	0.041500	0.388100	0.494900
H431	H43	0.029900	0.337500	0.423000
C591	C59	0.078900	0.364000	0.557000
H441	H44	0.092100	0.296800	0.527200
C601	C60	0.077100	0.533300	0.705400
H451	H45	0.088600	0.583100	0.778000
N251	N25	0.236200	0.431700	0.055500
C611	C61	0.039400	0.557100	0.640700
H461	H46	0.026300	0.625200	0.669700
C621	C62	0.222330	0.534600	0.105200
O141	O14	0.154020	0.477100	0.823500
N261	N26	0.233550	0.534400	0.232200
N271	N27	0.258140	0.358800	0.157000
C631	C63	0.255390	0.421000	0.258100
H471	H47	0.267200	0.390900	0.339800
N281	N28	0.200000	0.634800	0.036100
H481	H48	0.194200	0.633000	0.954700
H491	H49	0.191700	0.699600	0.073900
Cd81	Cd8	0.710250	0.831770	0.866600
O151	O15	0.653340	0.802700	0.703400
C641	C64	0.520600	0.984900	0.535600
C651	C65	0.637570	0.905700	0.735000
C661	C66	0.597500	0.937800	0.663800
C671	C67	0.541500	0.888100	0.494900
H501	H50	0.529900	0.837500	0.423000
C681	C68	0.578900	0.864000	0.557000
H511	H51	0.592100	0.796800	0.527200
C691	C69	0.577100	0.033300	0.705400
H521	H52	0.588600	0.083100	0.778000
N291	N29	0.736200	0.931700	0.055500
C701	C70	0.539400	0.057100	0.640700
H531	H53	0.526300	0.125200	0.669700
C711	C71	0.722330	0.034600	0.105200
O161	O16	0.654020	0.977100	0.823500
N301	N30	0.733550	0.034400	0.232200
N311	N31	0.758140	0.858800	0.157000
C721	C72	0.755390	0.921000	0.258100
H541	H54	0.767200	0.890900	0.339800
N321	N32	0.700000	0.134800	0.036100
H551	H55	0.694200	0.133000	0.954700
H561	H56	0.691700	0.199600	0.073900
