data_XUJPIC_clean_PM
_symmetry_space_group_name_H-M	'P1'
_cell_length_a	10.781000
_cell_length_b	13.903000
_cell_length_c	18.740000
_cell_angle_alpha	90.000000
_cell_angle_beta	98.170000
_cell_angle_gamma	90.000000
_symmetry_Int_Tables_number 1

loop_
_symmetry_equiv_pos_as_xyz
'x,y,z'

loop_
_atom_site_label
_atom_site_type_symbol
_atom_site_fract_x
_atom_site_fract_y
_atom_site_fract_z
Ni11	Ni1	0.605700	0.730790	0.476250
C11	C1	0.999050	0.757020	0.966110
C21	C2	0.108480	0.810530	0.981600
H11	H1	0.104100	0.877700	0.990400
C31	C3	0.224370	0.765840	0.984230
C41	C4	0.230830	0.667630	0.971380
H21	H2	0.310000	0.637100	0.973200
C51	C5	0.121410	0.614110	0.955880
C61	C6	0.005520	0.658810	0.953250
H31	H3	0.930700	0.622200	0.942700
C71	C7	0.874610	0.804290	0.972530
C81	C8	0.347000	0.818410	0.995220
C91	C9	0.128000	0.508520	0.942200
O11	O1	0.776890	0.758480	0.943620
O21	O2	0.872220	0.882670	0.004410
O31	O3	0.347800	0.907930	0.984950
O41	O4	0.441180	0.765470	0.013070
O51	O5	0.240470	0.471910	0.967740
O61	O6	0.043460	0.460960	0.911500
C101	C10	0.526290	0.981600	0.331460
C111	C11	0.528250	0.992240	0.257870
H41	H4	0.567200	0.944800	0.232100
C121	C12	0.473470	0.071830	0.222340
C131	C13	0.420440	0.143090	0.260370
H51	H5	0.385500	0.198900	0.236000
C141	C14	0.418560	0.132720	0.333980
C151	C15	0.469710	0.051100	0.369570
H61	H6	0.466100	0.042800	0.419600
C161	C16	0.591720	0.899320	0.372340
C171	C17	0.469200	0.083950	0.141000
C181	C18	0.365510	0.213990	0.373930
O71	O7	0.554850	0.865160	0.425960
O81	O8	0.692760	0.867150	0.346660
O91	O9	0.479950	0.008970	0.105420
O101	O10	0.458550	0.169430	0.119160
O111	O11	0.365700	0.296900	0.349110
O121	O12	0.325200	0.192360	0.433040
O131	O13	0.640380	0.897040	0.032080
Ni21	Ni2	0.394300	0.230790	0.023750
C191	C19	0.000950	0.257020	0.533890
C201	C20	0.891520	0.310530	0.518400
H71	H7	0.895900	0.377700	0.509600
C211	C21	0.775630	0.265840	0.515770
C221	C22	0.769170	0.167630	0.528620
H81	H8	0.690000	0.137100	0.526800
C231	C23	0.878590	0.114110	0.544120
C241	C24	0.994480	0.158810	0.546750
H91	H9	0.069300	0.122200	0.557300
C251	C25	0.125390	0.304290	0.527470
C261	C26	0.653000	0.318410	0.504780
C271	C27	0.872000	0.008520	0.557800
O141	O14	0.223110	0.258480	0.556380
O151	O15	0.127780	0.382670	0.495590
O161	O16	0.652200	0.407930	0.515050
O171	O17	0.558820	0.265470	0.486930
O181	O18	0.759530	0.971910	0.532260
O191	O19	0.956540	0.960960	0.588500
C281	C28	0.473710	0.481600	0.168540
C291	C29	0.471750	0.492240	0.242130
H101	H10	0.432800	0.444800	0.267900
C301	C30	0.526530	0.571830	0.277660
C311	C31	0.579560	0.643090	0.239630
H111	H11	0.614500	0.698900	0.264000
C321	C32	0.581440	0.632720	0.166020
C331	C33	0.530290	0.551100	0.130430
H121	H12	0.533900	0.542800	0.080400
C341	C34	0.408280	0.399320	0.127660
C351	C35	0.530800	0.583950	0.359000
C361	C36	0.634490	0.713990	0.126070
O201	O20	0.445150	0.365160	0.074040
O211	O21	0.307240	0.367150	0.153340
O221	O22	0.520050	0.508970	0.394580
O231	O23	0.541450	0.669430	0.380840
O241	O24	0.634300	0.796900	0.150890
O251	O25	0.674800	0.692360	0.066960
O261	O26	0.359620	0.397040	0.467920
Ni31	Ni3	0.394300	0.269210	0.523750
C371	C37	0.000950	0.242980	0.033890
C381	C38	0.891520	0.189470	0.018400
H131	H13	0.895900	0.122300	0.009600
C391	C39	0.775630	0.234160	0.015770
C401	C40	0.769170	0.332370	0.028620
H141	H14	0.690000	0.362900	0.026800
C411	C41	0.878590	0.385890	0.044120
C421	C42	0.994480	0.341190	0.046750
H151	H15	0.069300	0.377800	0.057300
C431	C43	0.125390	0.195710	0.027470
C441	C44	0.653000	0.181590	0.004780
C451	C45	0.872000	0.491480	0.057800
O271	O27	0.223110	0.241520	0.056380
O281	O28	0.127780	0.117330	0.995590
O291	O29	0.652200	0.092070	0.015050
O301	O30	0.558820	0.234530	0.986930
O311	O31	0.759530	0.528090	0.032260
O321	O32	0.956540	0.539040	0.088500
C461	C46	0.473710	0.018400	0.668540
C471	C47	0.471750	0.007760	0.742130
H161	H16	0.432800	0.055200	0.767900
C481	C48	0.526530	0.928170	0.777660
C491	C49	0.579560	0.856910	0.739630
H171	H17	0.614500	0.801100	0.764000
C501	C50	0.581440	0.867280	0.666020
C511	C51	0.530290	0.948900	0.630430
H181	H18	0.533900	0.957200	0.580400
C521	C52	0.408280	0.100680	0.627660
C531	C53	0.530800	0.916050	0.859000
C541	C54	0.634490	0.786010	0.626070
O331	O33	0.445150	0.134840	0.574040
O341	O34	0.307240	0.132850	0.653340
O351	O35	0.520050	0.991030	0.894580
O361	O36	0.541450	0.830570	0.880840
O371	O37	0.634300	0.703100	0.650890
O381	O38	0.674800	0.807640	0.566960
O391	O39	0.359620	0.102960	0.967920
Ni41	Ni4	0.605700	0.769210	0.976250
C551	C55	0.999050	0.742980	0.466110
C561	C56	0.108480	0.689470	0.481600
H191	H19	0.104100	0.622300	0.490400
C571	C57	0.224370	0.734160	0.484230
C581	C58	0.230830	0.832370	0.471380
H201	H20	0.310000	0.862900	0.473200
C591	C59	0.121410	0.885890	0.455880
C601	C60	0.005520	0.841190	0.453250
H211	H21	0.930700	0.877800	0.442700
C611	C61	0.874610	0.695710	0.472530
C621	C62	0.347000	0.681590	0.495220
C631	C63	0.128000	0.991480	0.442200
O401	O40	0.776890	0.741520	0.443620
O411	O41	0.872220	0.617330	0.504410
O421	O42	0.347800	0.592070	0.484950
O431	O43	0.441180	0.734530	0.513070
O441	O44	0.240470	0.028090	0.467740
O451	O45	0.043460	0.039040	0.411500
C641	C64	0.526290	0.518400	0.831460
C651	C65	0.528250	0.507760	0.757870
H221	H22	0.567200	0.555200	0.732100
C661	C66	0.473470	0.428170	0.722340
C671	C67	0.420440	0.356910	0.760370
H231	H23	0.385500	0.301100	0.736000
C681	C68	0.418560	0.367280	0.833980
C691	C69	0.469710	0.448900	0.869570
H241	H24	0.466100	0.457200	0.919600
C701	C70	0.591720	0.600680	0.872340
C711	C71	0.469200	0.416050	0.641000
C721	C72	0.365510	0.286010	0.873930
O461	O46	0.554850	0.634840	0.925960
O471	O47	0.692760	0.632850	0.846660
O481	O48	0.479950	0.491030	0.605420
O491	O49	0.458550	0.330570	0.619160
O501	O50	0.365700	0.203100	0.849110
O511	O51	0.325200	0.307640	0.933040
O521	O52	0.640380	0.602960	0.532080
Ni51	Ni5	0.500000	0.000000	0.000000
Ni61	Ni6	0.500000	0.500000	0.500000
