data_XUJPOI_clean_PM
_symmetry_space_group_name_H-M	'P1'
_cell_length_a	14.008600
_cell_length_b	16.332000
_cell_length_c	16.622000
_cell_angle_alpha	90.000000
_cell_angle_beta	90.000000
_cell_angle_gamma	90.000000
_symmetry_Int_Tables_number 1

loop_
_symmetry_equiv_pos_as_xyz
'x,y,z'

loop_
_atom_site_label
_atom_site_type_symbol
_atom_site_fract_x
_atom_site_fract_y
_atom_site_fract_z
Ni11	Ni1	0.973680	0.175560	0.610660
C11	C1	0.752600	0.996790	0.657270
C21	C2	0.719050	0.920240	0.633120
H11	H1	0.745500	0.894200	0.587100
C31	C3	0.646620	0.881920	0.676700
C41	C4	0.609470	0.920280	0.744570
H21	H2	0.563700	0.892500	0.776700
C51	C5	0.638420	0.998410	0.765790
C61	C6	0.710620	0.036950	0.721730
H31	H3	0.730900	0.090600	0.735900
C71	C7	0.838180	0.035600	0.615660
C81	C8	0.607710	0.799610	0.651690
C91	C9	0.590610	0.039460	0.836150
O11	O1	0.873600	0.097380	0.650060
O21	O2	0.866940	0.000460	0.552630
O31	O3	0.633260	0.768550	0.585950
O41	O4	0.547460	0.764840	0.696160
O51	O5	0.561280	0.992690	0.889310
O61	O6	0.582250	0.116700	0.833780
C101	C10	0.918430	0.806200	0.608730
H41	H4	0.848700	0.802000	0.609900
H51	H5	0.946400	0.757400	0.633600
H61	H6	0.938500	0.855000	0.638600
C111	C11	0.951850	0.812710	0.522860
O71	O7	0.932470	0.758180	0.472400
O81	O8	0.004200	0.871230	0.501440
Ni21	Ni2	0.526320	0.824440	0.110660
C121	C12	0.747400	0.003210	0.157270
C131	C13	0.780950	0.079760	0.133120
H71	H7	0.754500	0.105800	0.087100
C141	C14	0.853380	0.118080	0.176700
C151	C15	0.890530	0.079720	0.244570
H81	H8	0.936300	0.107500	0.276700
C161	C16	0.861580	0.001590	0.265790
C171	C17	0.789380	0.963050	0.221730
H91	H9	0.769100	0.909400	0.235900
C181	C18	0.661820	0.964400	0.115660
C191	C19	0.892290	0.200390	0.151690
C201	C20	0.909390	0.960540	0.336150
O91	O9	0.626400	0.902620	0.150060
O101	O10	0.633060	0.999540	0.052630
O111	O11	0.866740	0.231450	0.085950
O121	O12	0.952540	0.235160	0.196160
O131	O13	0.938720	0.007310	0.389310
O141	O14	0.917750	0.883300	0.333780
C211	C21	0.581570	0.193800	0.108730
H101	H10	0.651300	0.198000	0.109900
H111	H11	0.553600	0.242600	0.133600
H121	H12	0.561500	0.145000	0.138600
C221	C22	0.548150	0.187290	0.022860
O151	O15	0.567530	0.241820	0.972400
O161	O16	0.495800	0.128770	0.001440
Ni31	Ni3	0.026320	0.675560	0.889340
C231	C23	0.247400	0.496790	0.842730
C241	C24	0.280950	0.420240	0.866880
H131	H13	0.254500	0.394200	0.912900
C251	C25	0.353380	0.381920	0.823300
C261	C26	0.390530	0.420280	0.755430
H141	H14	0.436300	0.392500	0.723300
C271	C27	0.361580	0.498410	0.734210
C281	C28	0.289380	0.536950	0.778270
H151	H15	0.269100	0.590600	0.764100
C291	C29	0.161820	0.535600	0.884340
C301	C30	0.392290	0.299610	0.848310
C311	C31	0.409390	0.539460	0.663850
O171	O17	0.126400	0.597380	0.849940
O181	O18	0.133060	0.500460	0.947370
O191	O19	0.366740	0.268550	0.914050
O201	O20	0.452540	0.264840	0.803840
O211	O21	0.438720	0.492690	0.610690
O221	O22	0.417750	0.616700	0.666220
C321	C32	0.081570	0.306200	0.891270
H161	H16	0.151300	0.302000	0.890100
H171	H17	0.053600	0.257400	0.866400
H181	H18	0.061500	0.355000	0.861400
C331	C33	0.048150	0.312710	0.977140
O231	O23	0.067530	0.258180	0.027600
O241	O24	0.995800	0.371230	0.998560
Ni41	Ni4	0.473680	0.324440	0.389340
C341	C34	0.252600	0.503210	0.342730
C351	C35	0.219050	0.579760	0.366880
H191	H19	0.245500	0.605800	0.412900
C361	C36	0.146620	0.618080	0.323300
C371	C37	0.109470	0.579720	0.255430
H201	H20	0.063700	0.607500	0.223300
C381	C38	0.138420	0.501590	0.234210
C391	C39	0.210620	0.463050	0.278270
H211	H21	0.230900	0.409400	0.264100
C401	C40	0.338180	0.464400	0.384340
C411	C41	0.107710	0.700390	0.348310
C421	C42	0.090610	0.460540	0.163850
O251	O25	0.373600	0.402620	0.349940
O261	O26	0.366940	0.499540	0.447370
O271	O27	0.133260	0.731450	0.414050
O281	O28	0.047460	0.735160	0.303840
O291	O29	0.061280	0.507310	0.110690
O301	O30	0.082250	0.383300	0.166220
C431	C43	0.418430	0.693800	0.391270
H221	H22	0.348700	0.698000	0.390100
H231	H23	0.446400	0.742600	0.366400
H241	H24	0.438500	0.645000	0.361400
C441	C44	0.451850	0.687290	0.477140
O311	O31	0.432470	0.741820	0.527600
O321	O32	0.504200	0.628770	0.498560
Ni51	Ni5	0.026320	0.824440	0.389340
C451	C45	0.247400	0.003210	0.342730
C461	C46	0.280950	0.079760	0.366880
H251	H25	0.254500	0.105800	0.412900
C471	C47	0.353380	0.118080	0.323300
C481	C48	0.390530	0.079720	0.255430
H261	H26	0.436300	0.107500	0.223300
C491	C49	0.361580	0.001590	0.234210
C501	C50	0.289380	0.963050	0.278270
H271	H27	0.269100	0.909400	0.264100
C511	C51	0.161820	0.964400	0.384340
C521	C52	0.392290	0.200390	0.348310
C531	C53	0.409390	0.960540	0.163850
O331	O33	0.126400	0.902620	0.349940
O341	O34	0.133060	0.999540	0.447370
O351	O35	0.366740	0.231450	0.414050
O361	O36	0.452540	0.235160	0.303840
O371	O37	0.438720	0.007310	0.110690
O381	O38	0.417750	0.883300	0.166220
C541	C54	0.081570	0.193800	0.391270
H281	H28	0.151300	0.198000	0.390100
H291	H29	0.053600	0.242600	0.366400
H301	H30	0.061500	0.145000	0.361400
C551	C55	0.048150	0.187290	0.477140
O391	O39	0.067530	0.241820	0.527600
O401	O40	0.995800	0.128770	0.498560
Ni61	Ni6	0.473680	0.175560	0.889340
C561	C56	0.252600	0.996790	0.842730
C571	C57	0.219050	0.920240	0.866880
H311	H31	0.245500	0.894200	0.912900
C581	C58	0.146620	0.881920	0.823300
C591	C59	0.109470	0.920280	0.755430
H321	H32	0.063700	0.892500	0.723300
C601	C60	0.138420	0.998410	0.734210
C611	C61	0.210620	0.036950	0.778270
H331	H33	0.230900	0.090600	0.764100
C621	C62	0.338180	0.035600	0.884340
C631	C63	0.107710	0.799610	0.848310
C641	C64	0.090610	0.039460	0.663850
O411	O41	0.373600	0.097380	0.849940
O421	O42	0.366940	0.000460	0.947370
O431	O43	0.133260	0.768550	0.914050
O441	O44	0.047460	0.764840	0.803840
O451	O45	0.061280	0.992690	0.610690
O461	O46	0.082250	0.116700	0.666220
C651	C65	0.418430	0.806200	0.891270
H341	H34	0.348700	0.802000	0.890100
H351	H35	0.446400	0.757400	0.866400
H361	H36	0.438500	0.855000	0.861400
C661	C66	0.451850	0.812710	0.977140
O471	O47	0.432470	0.758180	0.027600
O481	O48	0.504200	0.871230	0.998560
Ni71	Ni7	0.973680	0.324440	0.110660
C671	C67	0.752600	0.503210	0.157270
C681	C68	0.719050	0.579760	0.133120
H371	H37	0.745500	0.605800	0.087100
C691	C69	0.646620	0.618080	0.176700
C701	C70	0.609470	0.579720	0.244570
H381	H38	0.563700	0.607500	0.276700
C711	C71	0.638420	0.501590	0.265790
C721	C72	0.710620	0.463050	0.221730
H391	H39	0.730900	0.409400	0.235900
C731	C73	0.838180	0.464400	0.115660
C741	C74	0.607710	0.700390	0.151690
C751	C75	0.590610	0.460540	0.336150
O491	O49	0.873600	0.402620	0.150060
O501	O50	0.866940	0.499540	0.052630
O511	O51	0.633260	0.731450	0.085950
O521	O52	0.547460	0.735160	0.196160
O531	O53	0.561280	0.507310	0.389310
O541	O54	0.582250	0.383300	0.333780
C761	C76	0.918430	0.693800	0.108730
H401	H40	0.848700	0.698000	0.109900
H411	H41	0.946400	0.742600	0.133600
H421	H42	0.938500	0.645000	0.138600
C771	C77	0.951850	0.687290	0.022860
O551	O55	0.932470	0.741820	0.972400
O561	O56	0.004200	0.628770	0.001440
Ni81	Ni8	0.526320	0.675560	0.610660
C781	C78	0.747400	0.496790	0.657270
C791	C79	0.780950	0.420240	0.633120
H431	H43	0.754500	0.394200	0.587100
C801	C80	0.853380	0.381920	0.676700
C811	C81	0.890530	0.420280	0.744570
H441	H44	0.936300	0.392500	0.776700
C821	C82	0.861580	0.498410	0.765790
C831	C83	0.789380	0.536950	0.721730
H451	H45	0.769100	0.590600	0.735900
C841	C84	0.661820	0.535600	0.615660
C851	C85	0.892290	0.299610	0.651690
C861	C86	0.909390	0.539460	0.836150
O571	O57	0.626400	0.597380	0.650060
O581	O58	0.633060	0.500460	0.552630
O591	O59	0.866740	0.268550	0.585950
O601	O60	0.952540	0.264840	0.696160
O611	O61	0.938720	0.492690	0.889310
O621	O62	0.917750	0.616700	0.833780
C871	C87	0.581570	0.306200	0.608730
H461	H46	0.651300	0.302000	0.609900
H471	H47	0.553600	0.257400	0.633600
H481	H48	0.561500	0.355000	0.638600
C881	C88	0.548150	0.312710	0.522860
O631	O63	0.567530	0.258180	0.472400
O641	O64	0.495800	0.371230	0.501440
Ni91	Ni9	0.000000	0.000000	0.500000
Ni101	Ni10	0.500000	0.000000	0.000000
Ni111	Ni11	0.000000	0.500000	0.000000
Ni121	Ni12	0.500000	0.500000	0.500000
