data_XUJQAV_clean_PM
_symmetry_space_group_name_H-M	'P1'
_cell_length_a	14.134900
_cell_length_b	16.296100
_cell_length_c	16.524000
_cell_angle_alpha	90.000000
_cell_angle_beta	90.000000
_cell_angle_gamma	90.000000
_symmetry_Int_Tables_number 1

loop_
_symmetry_equiv_pos_as_xyz
'x,y,z'

loop_
_atom_site_label
_atom_site_type_symbol
_atom_site_fract_x
_atom_site_fract_y
_atom_site_fract_z
Ni11	Ni1	0.972720	0.672630	0.113980
C11	C1	0.138940	0.496710	0.235200
C21	C2	0.113330	0.416950	0.253740
H11	H1	0.070000	0.388600	0.219800
C31	C3	0.150280	0.377750	0.321450
C41	C4	0.220110	0.417060	0.366510
H21	H2	0.245800	0.390800	0.412900
C51	C5	0.252440	0.494090	0.344280
C61	C6	0.208180	0.535920	0.280680
H31	H3	0.225400	0.590900	0.268700
C71	C7	0.089870	0.539100	0.165450
C81	C8	0.111630	0.295060	0.345020
C91	C9	0.338210	0.532090	0.384310
O11	O1	0.081980	0.616160	0.169010
O21	O2	0.059620	0.492380	0.111330
O31	O3	0.051290	0.260970	0.299060
O41	O4	0.135730	0.262410	0.410870
O51	O5	0.366670	0.499210	0.449070
O61	O6	0.375150	0.591150	0.347150
C101	C10	0.922990	0.305520	0.107180
H41	H4	0.853900	0.301300	0.110000
H51	H5	0.951500	0.256200	0.130700
H61	H6	0.943900	0.353900	0.137500
C111	C11	0.953000	0.313440	0.020500
O71	O7	0.933460	0.259580	0.969250
O81	O8	0.005890	0.373190	0.998950
Ni21	Ni2	0.527280	0.327370	0.613980
C121	C12	0.361060	0.503290	0.735200
C131	C13	0.386670	0.583050	0.753740
H71	H7	0.430000	0.611400	0.719800
C141	C14	0.349720	0.622250	0.821450
C151	C15	0.279890	0.582940	0.866510
H81	H8	0.254200	0.609200	0.912900
C161	C16	0.247560	0.505910	0.844280
C171	C17	0.291820	0.464080	0.780680
H91	H9	0.274600	0.409100	0.768700
C181	C18	0.410130	0.460900	0.665450
C191	C19	0.388370	0.704940	0.845020
C201	C20	0.161790	0.467910	0.884310
O91	O9	0.418020	0.383840	0.669010
O101	O10	0.440380	0.507620	0.611330
O111	O11	0.448710	0.739030	0.799060
O121	O12	0.364270	0.737590	0.910870
O131	O13	0.133330	0.500790	0.949070
O141	O14	0.124850	0.408850	0.847150
C211	C21	0.577010	0.694480	0.607180
H101	H10	0.646100	0.698700	0.610000
H111	H11	0.548500	0.743800	0.630700
H121	H12	0.556100	0.646100	0.637500
C221	C22	0.547000	0.686560	0.520500
O151	O15	0.566540	0.740420	0.469250
O161	O16	0.494110	0.626810	0.498950
Ni31	Ni3	0.027280	0.172630	0.386020
C231	C23	0.861060	0.996710	0.264800
C241	C24	0.886670	0.916950	0.246260
H131	H13	0.930000	0.888600	0.280200
C251	C25	0.849720	0.877750	0.178550
C261	C26	0.779890	0.917060	0.133490
H141	H14	0.754200	0.890800	0.087100
C271	C27	0.747560	0.994090	0.155720
C281	C28	0.791820	0.035920	0.219320
H151	H15	0.774600	0.090900	0.231300
C291	C29	0.910130	0.039100	0.334550
C301	C30	0.888370	0.795060	0.154980
C311	C31	0.661790	0.032090	0.115690
O171	O17	0.918020	0.116160	0.330990
O181	O18	0.940380	0.992380	0.388670
O191	O19	0.948710	0.760970	0.200940
O201	O20	0.864270	0.762410	0.089130
O211	O21	0.633330	0.999210	0.050930
O221	O22	0.624850	0.091150	0.152850
C321	C32	0.077010	0.805520	0.392820
H161	H16	0.146100	0.801300	0.390000
H171	H17	0.048500	0.756200	0.369300
H181	H18	0.056100	0.853900	0.362500
C331	C33	0.047000	0.813440	0.479500
O231	O23	0.066540	0.759580	0.530750
O241	O24	0.994110	0.873190	0.501050
Ni41	Ni4	0.472720	0.827370	0.886020
C341	C34	0.638940	0.003290	0.764800
C351	C35	0.613330	0.083050	0.746260
H191	H19	0.570000	0.111400	0.780200
C361	C36	0.650280	0.122250	0.678550
C371	C37	0.720110	0.082940	0.633490
H201	H20	0.745800	0.109200	0.587100
C381	C38	0.752440	0.005910	0.655720
C391	C39	0.708180	0.964080	0.719320
H211	H21	0.725400	0.909100	0.731300
C401	C40	0.589870	0.960900	0.834550
C411	C41	0.611630	0.204940	0.654980
C421	C42	0.838210	0.967910	0.615690
O251	O25	0.581980	0.883840	0.830990
O261	O26	0.559620	0.007620	0.888670
O271	O27	0.551290	0.239030	0.700940
O281	O28	0.635730	0.237590	0.589130
O291	O29	0.866670	0.000790	0.550930
O301	O30	0.875150	0.908850	0.652850
C431	C43	0.422990	0.194480	0.892820
H221	H22	0.353900	0.198700	0.890000
H231	H23	0.451500	0.243800	0.869300
H241	H24	0.443900	0.146100	0.862500
C441	C44	0.453000	0.186560	0.979500
O311	O31	0.433460	0.240420	0.030750
O321	O32	0.505890	0.126810	0.001050
Ni51	Ni5	0.027280	0.327370	0.886020
C451	C45	0.861060	0.503290	0.764800
C461	C46	0.886670	0.583050	0.746260
H251	H25	0.930000	0.611400	0.780200
C471	C47	0.849720	0.622250	0.678550
C481	C48	0.779890	0.582940	0.633490
H261	H26	0.754200	0.609200	0.587100
C491	C49	0.747560	0.505910	0.655720
C501	C50	0.791820	0.464080	0.719320
H271	H27	0.774600	0.409100	0.731300
C511	C51	0.910130	0.460900	0.834550
C521	C52	0.888370	0.704940	0.654980
C531	C53	0.661790	0.467910	0.615690
O331	O33	0.918020	0.383840	0.830990
O341	O34	0.940380	0.507620	0.888670
O351	O35	0.948710	0.739030	0.700940
O361	O36	0.864270	0.737590	0.589130
O371	O37	0.633330	0.500790	0.550930
O381	O38	0.624850	0.408850	0.652850
C541	C54	0.077010	0.694480	0.892820
H281	H28	0.146100	0.698700	0.890000
H291	H29	0.048500	0.743800	0.869300
H301	H30	0.056100	0.646100	0.862500
C551	C55	0.047000	0.686560	0.979500
O391	O39	0.066540	0.740420	0.030750
O401	O40	0.994110	0.626810	0.001050
Ni61	Ni6	0.472720	0.672630	0.386020
C561	C56	0.638940	0.496710	0.264800
C571	C57	0.613330	0.416950	0.246260
H311	H31	0.570000	0.388600	0.280200
C581	C58	0.650280	0.377750	0.178550
C591	C59	0.720110	0.417060	0.133490
H321	H32	0.745800	0.390800	0.087100
C601	C60	0.752440	0.494090	0.155720
C611	C61	0.708180	0.535920	0.219320
H331	H33	0.725400	0.590900	0.231300
C621	C62	0.589870	0.539100	0.334550
C631	C63	0.611630	0.295060	0.154980
C641	C64	0.838210	0.532090	0.115690
O411	O41	0.581980	0.616160	0.330990
O421	O42	0.559620	0.492380	0.388670
O431	O43	0.551290	0.260970	0.200940
O441	O44	0.635730	0.262410	0.089130
O451	O45	0.866670	0.499210	0.050930
O461	O46	0.875150	0.591150	0.152850
C651	C65	0.422990	0.305520	0.392820
H341	H34	0.353900	0.301300	0.390000
H351	H35	0.451500	0.256200	0.369300
H361	H36	0.443900	0.353900	0.362500
C661	C66	0.453000	0.313440	0.479500
O471	O47	0.433460	0.259580	0.530750
O481	O48	0.505890	0.373190	0.501050
Ni71	Ni7	0.972720	0.827370	0.613980
C671	C67	0.138940	0.003290	0.735200
C681	C68	0.113330	0.083050	0.753740
H371	H37	0.070000	0.111400	0.719800
C691	C69	0.150280	0.122250	0.821450
C701	C70	0.220110	0.082940	0.866510
H381	H38	0.245800	0.109200	0.912900
C711	C71	0.252440	0.005910	0.844280
C721	C72	0.208180	0.964080	0.780680
H391	H39	0.225400	0.909100	0.768700
C731	C73	0.089870	0.960900	0.665450
C741	C74	0.111630	0.204940	0.845020
C751	C75	0.338210	0.967910	0.884310
O491	O49	0.081980	0.883840	0.669010
O501	O50	0.059620	0.007620	0.611330
O511	O51	0.051290	0.239030	0.799060
O521	O52	0.135730	0.237590	0.910870
O531	O53	0.366670	0.000790	0.949070
O541	O54	0.375150	0.908850	0.847150
C761	C76	0.922990	0.194480	0.607180
H401	H40	0.853900	0.198700	0.610000
H411	H41	0.951500	0.243800	0.630700
H421	H42	0.943900	0.146100	0.637500
C771	C77	0.953000	0.186560	0.520500
O551	O55	0.933460	0.240420	0.469250
O561	O56	0.005890	0.126810	0.498950
Ni81	Ni8	0.527280	0.172630	0.113980
C781	C78	0.361060	0.996710	0.235200
C791	C79	0.386670	0.916950	0.253740
H431	H43	0.430000	0.888600	0.219800
C801	C80	0.349720	0.877750	0.321450
C811	C81	0.279890	0.917060	0.366510
H441	H44	0.254200	0.890800	0.412900
C821	C82	0.247560	0.994090	0.344280
C831	C83	0.291820	0.035920	0.280680
H451	H45	0.274600	0.090900	0.268700
C841	C84	0.410130	0.039100	0.165450
C851	C85	0.388370	0.795060	0.345020
C861	C86	0.161790	0.032090	0.384310
O571	O57	0.418020	0.116160	0.169010
O581	O58	0.440380	0.992380	0.111330
O591	O59	0.448710	0.760970	0.299060
O601	O60	0.364270	0.762410	0.410870
O611	O61	0.133330	0.999210	0.449070
O621	O62	0.124850	0.091150	0.347150
C871	C87	0.577010	0.805520	0.107180
H461	H46	0.646100	0.801300	0.110000
H471	H47	0.548500	0.756200	0.130700
H481	H48	0.556100	0.853900	0.137500
C881	C88	0.547000	0.813440	0.020500
O631	O63	0.566540	0.759580	0.969250
O641	O64	0.494110	0.873190	0.998950
Ni91	Ni9	0.000000	0.500000	0.000000
Ni101	Ni10	0.500000	0.500000	0.500000
Ni111	Ni11	0.000000	0.000000	0.500000
Ni121	Ni12	0.500000	0.000000	0.000000
