data_XUKHUI_clean_PM
_symmetry_space_group_name_H-M	'P1'
_cell_length_a	21.751000
_cell_length_b	9.389000
_cell_length_c	17.030000
_cell_angle_alpha	90.000000
_cell_angle_beta	109.965000
_cell_angle_gamma	90.000000
_symmetry_Int_Tables_number 1

loop_
_symmetry_equiv_pos_as_xyz
'x,y,z'

loop_
_atom_site_label
_atom_site_type_symbol
_atom_site_fract_x
_atom_site_fract_y
_atom_site_fract_z
C11	C1	0.412090	0.868600	0.265010
C21	C2	0.369190	0.971730	0.289180
C31	C3	0.389940	0.026100	0.369850
H11	H1	0.428800	0.994800	0.409300
C41	C4	0.351580	0.128200	0.390870
C51	C5	0.292970	0.170900	0.332890
H21	H2	0.267500	0.237800	0.348100
C61	C6	0.270810	0.115500	0.251200
C71	C7	0.310410	0.016600	0.229690
H31	H3	0.297600	0.980500	0.175600
C81	C8	0.186880	0.118200	0.108460
H41	H4	0.140800	0.142500	0.085800
H51	H5	0.190200	0.015500	0.105100
C91	C9	0.221020	0.185300	0.053660
C101	C10	0.237690	0.105600	0.995350
H61	H6	0.229700	0.008100	0.991600
C111	C11	0.233890	0.331200	0.057440
H71	H7	0.223200	0.387000	0.096000
C121	C12	0.374810	0.193300	0.476910
N11	N1	0.211480	0.159000	0.195800
H81	H8	0.187600	0.213600	0.214000
O11	O1	0.395270	0.837060	0.189330
O21	O2	0.459520	0.817900	0.320080
O31	O3	0.429540	0.147600	0.526050
O41	O4	0.342850	0.285200	0.496750
Zn11	Zn1	0.448560	0.752360	0.130750
C131	C13	0.912090	0.368600	0.265010
C141	C14	0.869190	0.471730	0.289180
C151	C15	0.889940	0.526100	0.369850
H91	H9	0.928800	0.494800	0.409300
C161	C16	0.851580	0.628200	0.390870
C171	C17	0.792970	0.670900	0.332890
H101	H10	0.767500	0.737800	0.348100
C181	C18	0.770810	0.615500	0.251200
C191	C19	0.810410	0.516600	0.229690
H111	H11	0.797600	0.480500	0.175600
C201	C20	0.686880	0.618200	0.108460
H121	H12	0.640800	0.642500	0.085800
H131	H13	0.690200	0.515500	0.105100
C211	C21	0.721020	0.685300	0.053660
C221	C22	0.737690	0.605600	0.995350
H141	H14	0.729700	0.508100	0.991600
C231	C23	0.733890	0.831200	0.057440
H151	H15	0.723200	0.887000	0.096000
C241	C24	0.874810	0.693300	0.476910
N21	N2	0.711480	0.659000	0.195800
H161	H16	0.687600	0.713600	0.214000
O51	O5	0.895270	0.337060	0.189330
O61	O6	0.959520	0.317900	0.320080
O71	O7	0.929540	0.647600	0.526050
O81	O8	0.842850	0.785200	0.496750
Zn21	Zn2	0.948560	0.252360	0.130750
C251	C25	0.587910	0.868600	0.234990
C261	C26	0.630810	0.971730	0.210820
C271	C27	0.610060	0.026100	0.130150
H171	H17	0.571200	0.994800	0.090700
C281	C28	0.648420	0.128200	0.109130
C291	C29	0.707030	0.170900	0.167110
H181	H18	0.732500	0.237800	0.151900
C301	C30	0.729190	0.115500	0.248800
C311	C31	0.689590	0.016600	0.270310
H191	H19	0.702400	0.980500	0.324400
C321	C32	0.813120	0.118200	0.391540
H201	H20	0.859200	0.142500	0.414200
H211	H21	0.809800	0.015500	0.394900
C331	C33	0.778980	0.185300	0.446340
C341	C34	0.762310	0.105600	0.504650
H221	H22	0.770300	0.008100	0.508400
C351	C35	0.766110	0.331200	0.442560
H231	H23	0.776800	0.387000	0.404000
C361	C36	0.625190	0.193300	0.023090
N31	N3	0.788520	0.159000	0.304200
H241	H24	0.812400	0.213600	0.286000
O91	O9	0.604730	0.837060	0.310670
O101	O10	0.540480	0.817900	0.179920
O111	O11	0.570460	0.147600	0.973950
O121	O12	0.657150	0.285200	0.003250
Zn31	Zn3	0.551440	0.752360	0.369250
C371	C37	0.087910	0.368600	0.234990
C381	C38	0.130810	0.471730	0.210820
C391	C39	0.110060	0.526100	0.130150
H251	H25	0.071200	0.494800	0.090700
C401	C40	0.148420	0.628200	0.109130
C411	C41	0.207030	0.670900	0.167110
H261	H26	0.232500	0.737800	0.151900
C421	C42	0.229190	0.615500	0.248800
C431	C43	0.189590	0.516600	0.270310
H271	H27	0.202400	0.480500	0.324400
C441	C44	0.313120	0.618200	0.391540
H281	H28	0.359200	0.642500	0.414200
H291	H29	0.309800	0.515500	0.394900
C451	C45	0.278980	0.685300	0.446340
C461	C46	0.262310	0.605600	0.504650
H301	H30	0.270300	0.508100	0.508400
C471	C47	0.266110	0.831200	0.442560
H311	H31	0.276800	0.887000	0.404000
C481	C48	0.125190	0.693300	0.023090
N41	N4	0.288520	0.659000	0.304200
H321	H32	0.312400	0.713600	0.286000
O131	O13	0.104730	0.337060	0.310670
O141	O14	0.040480	0.317900	0.179920
O151	O15	0.070460	0.647600	0.973950
O161	O16	0.157150	0.785200	0.003250
Zn41	Zn4	0.051440	0.252360	0.369250
C491	C49	0.587910	0.131400	0.734990
C501	C50	0.630810	0.028270	0.710820
C511	C51	0.610060	0.973900	0.630150
H331	H33	0.571200	0.005200	0.590700
C521	C52	0.648420	0.871800	0.609130
C531	C53	0.707030	0.829100	0.667110
H341	H34	0.732500	0.762200	0.651900
C541	C54	0.729190	0.884500	0.748800
C551	C55	0.689590	0.983400	0.770310
H351	H35	0.702400	0.019500	0.824400
C561	C56	0.813120	0.881800	0.891540
H361	H36	0.859200	0.857500	0.914200
H371	H37	0.809800	0.984500	0.894900
C571	C57	0.778980	0.814700	0.946340
C581	C58	0.762310	0.894400	0.004650
H381	H38	0.770300	0.991900	0.008400
C591	C59	0.766110	0.668800	0.942560
H391	H39	0.776800	0.613000	0.904000
C601	C60	0.625190	0.806700	0.523090
N51	N5	0.788520	0.841000	0.804200
H401	H40	0.812400	0.786400	0.786000
O171	O17	0.604730	0.162940	0.810670
O181	O18	0.540480	0.182100	0.679920
O191	O19	0.570460	0.852400	0.473950
O201	O20	0.657150	0.714800	0.503250
Zn51	Zn5	0.551440	0.247640	0.869250
C611	C61	0.087910	0.631400	0.734990
C621	C62	0.130810	0.528270	0.710820
C631	C63	0.110060	0.473900	0.630150
H411	H41	0.071200	0.505200	0.590700
C641	C64	0.148420	0.371800	0.609130
C651	C65	0.207030	0.329100	0.667110
H421	H42	0.232500	0.262200	0.651900
C661	C66	0.229190	0.384500	0.748800
C671	C67	0.189590	0.483400	0.770310
H431	H43	0.202400	0.519500	0.824400
C681	C68	0.313120	0.381800	0.891540
H441	H44	0.359200	0.357500	0.914200
H451	H45	0.309800	0.484500	0.894900
C691	C69	0.278980	0.314700	0.946340
C701	C70	0.262310	0.394400	0.004650
H461	H46	0.270300	0.491900	0.008400
C711	C71	0.266110	0.168800	0.942560
H471	H47	0.276800	0.113000	0.904000
C721	C72	0.125190	0.306700	0.523090
N61	N6	0.288520	0.341000	0.804200
H481	H48	0.312400	0.286400	0.786000
O211	O21	0.104730	0.662940	0.810670
O221	O22	0.040480	0.682100	0.679920
O231	O23	0.070460	0.352400	0.473950
O241	O24	0.157150	0.214800	0.503250
Zn61	Zn6	0.051440	0.747640	0.869250
C731	C73	0.412090	0.131400	0.765010
C741	C74	0.369190	0.028270	0.789180
C751	C75	0.389940	0.973900	0.869850
H491	H49	0.428800	0.005200	0.909300
C761	C76	0.351580	0.871800	0.890870
C771	C77	0.292970	0.829100	0.832890
H501	H50	0.267500	0.762200	0.848100
C781	C78	0.270810	0.884500	0.751200
C791	C79	0.310410	0.983400	0.729690
H511	H51	0.297600	0.019500	0.675600
C801	C80	0.186880	0.881800	0.608460
H521	H52	0.140800	0.857500	0.585800
H531	H53	0.190200	0.984500	0.605100
C811	C81	0.221020	0.814700	0.553660
C821	C82	0.237690	0.894400	0.495350
H541	H54	0.229700	0.991900	0.491600
C831	C83	0.233890	0.668800	0.557440
H551	H55	0.223200	0.613000	0.596000
C841	C84	0.374810	0.806700	0.976910
N71	N7	0.211480	0.841000	0.695800
H561	H56	0.187600	0.786400	0.714000
O251	O25	0.395270	0.162940	0.689330
O261	O26	0.459520	0.182100	0.820080
O271	O27	0.429540	0.852400	0.026050
O281	O28	0.342850	0.714800	0.996750
Zn71	Zn7	0.448560	0.247640	0.630750
C851	C85	0.912090	0.631400	0.765010
C861	C86	0.869190	0.528270	0.789180
C871	C87	0.889940	0.473900	0.869850
H571	H57	0.928800	0.505200	0.909300
C881	C88	0.851580	0.371800	0.890870
C891	C89	0.792970	0.329100	0.832890
H581	H58	0.767500	0.262200	0.848100
C901	C90	0.770810	0.384500	0.751200
C911	C91	0.810410	0.483400	0.729690
H591	H59	0.797600	0.519500	0.675600
C921	C92	0.686880	0.381800	0.608460
H601	H60	0.640800	0.357500	0.585800
H611	H61	0.690200	0.484500	0.605100
C931	C93	0.721020	0.314700	0.553660
C941	C94	0.737690	0.394400	0.495350
H621	H62	0.729700	0.491900	0.491600
C951	C95	0.733890	0.168800	0.557440
H631	H63	0.723200	0.113000	0.596000
C961	C96	0.874810	0.306700	0.976910
N81	N8	0.711480	0.341000	0.695800
H641	H64	0.687600	0.286400	0.714000
O291	O29	0.895270	0.662940	0.689330
O301	O30	0.959520	0.682100	0.820080
O311	O31	0.929540	0.352400	0.026050
O321	O32	0.842850	0.214800	0.996750
Zn81	Zn8	0.948560	0.747640	0.630750
