data_XUKLAS_clean_PM
_symmetry_space_group_name_H-M	'P1'
_cell_length_a	7.328400
_cell_length_b	16.137900
_cell_length_c	16.353200
_cell_angle_alpha	111.241000
_cell_angle_beta	92.752000
_cell_angle_gamma	98.743000
_symmetry_Int_Tables_number 1

loop_
_symmetry_equiv_pos_as_xyz
'x,y,z'

loop_
_atom_site_label
_atom_site_type_symbol
_atom_site_fract_x
_atom_site_fract_y
_atom_site_fract_z
Zn11	Zn1	0.865260	0.450310	0.271600
O11	O1	0.708500	0.331900	0.319710
O21	O2	0.590500	0.410470	0.254390
O31	O3	0.914600	0.351700	0.157260
O41	O4	0.939500	0.552250	0.231080
O51	O5	0.842200	0.613470	0.360430
O61	O6	0.811300	0.205100	0.092980
O71	O7	0.302200	0.866400	0.125700
O81	O8	0.194300	0.723000	0.069200
C11	C1	0.574100	0.348400	0.284600
C21	C2	0.382100	0.294000	0.274100
C31	C3	0.243300	0.303900	0.219900
H11	H1	0.270300	0.345300	0.192700
C41	C4	0.065300	0.254100	0.204900
C51	C5	0.031900	0.191500	0.246000
C61	C6	0.847300	0.130200	0.233400
H21	H2	0.855200	0.092400	0.266800
H31	H3	0.815800	0.093000	0.171900
H41	H4	0.753300	0.166000	0.253300
C71	C7	0.333500	0.233800	0.316800
C81	C8	0.460000	0.220900	0.384900
H51	H5	0.395900	0.176200	0.404400
H61	H6	0.496300	0.277100	0.434300
H71	H7	0.568600	0.201200	0.359300
C91	C9	0.094700	0.428200	0.417400
H81	H8	0.987800	0.390000	0.419400
C101	C10	0.250100	0.438600	0.472900
H91	H9	0.246500	0.408300	0.511800
C111	C11	0.414900	0.494960	0.471160
C121	C12	0.407000	0.538200	0.412600
H101	H10	0.511800	0.576800	0.409100
C131	C13	0.246500	0.524900	0.359400
H111	H11	0.246000	0.555000	0.320500
C141	C14	0.922800	0.620800	0.298500
C151	C15	0.012800	0.711800	0.300000
C161	C16	0.053500	0.789900	0.376300
C171	C17	0.030400	0.792800	0.468400
H121	H12	0.065900	0.853900	0.509900
H131	H13	0.107800	0.755600	0.482300
H141	H14	0.902900	0.770600	0.471700
C181	C18	0.171300	0.875500	0.295900
C191	C19	0.243700	0.970600	0.300900
H151	H15	0.246000	0.012600	0.360300
H161	H16	0.163800	0.985400	0.261900
H171	H17	0.367100	0.974000	0.283600
C201	C20	0.150100	0.798400	0.217200
C211	C21	0.066600	0.717500	0.222000
H181	H18	0.046100	0.665400	0.171100
C221	C22	0.220100	0.797900	0.133100
C231	C23	0.920900	0.271400	0.148600
N11	N1	0.089300	0.470030	0.360660
N21	N2	0.162300	0.183890	0.301340
N31	N3	0.129400	0.869800	0.372300
Zn21	Zn2	0.649920	0.240520	0.014400
C241	C24	0.404500	0.097400	0.055700
H191	H19	0.511600	0.099300	0.089700
C251	C25	0.247900	0.037100	0.053100
H201	H20	0.250700	0.999500	0.084600
C261	C26	0.085600	0.032600	0.003100
C271	C27	0.092900	0.091700	0.959500
H211	H21	0.987100	0.092400	0.926100
C281	C28	0.254800	0.149400	0.965100
H221	H22	0.255500	0.188000	0.934400
N41	N4	0.411000	0.153110	0.012100
Zn31	Zn3	0.134740	0.549690	0.728400
O91	O9	0.291500	0.668100	0.680290
O101	O10	0.409500	0.589530	0.745610
O111	O11	0.085400	0.648300	0.842740
O121	O12	0.060500	0.447750	0.768920
O131	O13	0.157800	0.386530	0.639570
O141	O14	0.188700	0.794900	0.907020
O151	O15	0.697800	0.133600	0.874300
O161	O16	0.805700	0.277000	0.930800
C291	C29	0.425900	0.651600	0.715400
C301	C30	0.617900	0.706000	0.725900
C311	C31	0.756700	0.696100	0.780100
H231	H23	0.729700	0.654700	0.807300
C321	C32	0.934700	0.745900	0.795100
C331	C33	0.968100	0.808500	0.754000
C341	C34	0.152700	0.869800	0.766600
H241	H24	0.144800	0.907600	0.733200
H251	H25	0.184200	0.907000	0.828100
H261	H26	0.246700	0.834000	0.746700
C351	C35	0.666500	0.766200	0.683200
C361	C36	0.540000	0.779100	0.615100
H271	H27	0.604100	0.823800	0.595600
H281	H28	0.503700	0.722900	0.565700
H291	H29	0.431400	0.798800	0.640700
C371	C37	0.905300	0.571800	0.582600
H301	H30	0.012200	0.610000	0.580600
C381	C38	0.749900	0.561400	0.527100
H311	H31	0.753500	0.591700	0.488200
C391	C39	0.585100	0.505040	0.528840
C401	C40	0.593000	0.461800	0.587400
H321	H32	0.488200	0.423200	0.590900
C411	C41	0.753500	0.475100	0.640600
H331	H33	0.754000	0.445000	0.679500
C421	C42	0.077200	0.379200	0.701500
C431	C43	0.987200	0.288200	0.700000
C441	C44	0.946500	0.210100	0.623700
C451	C45	0.969600	0.207200	0.531600
H341	H34	0.934100	0.146100	0.490100
H351	H35	0.892200	0.244400	0.517700
H361	H36	0.097100	0.229400	0.528300
C461	C46	0.828700	0.124500	0.704100
C471	C47	0.756300	0.029400	0.699100
H371	H37	0.754000	0.987400	0.639700
H381	H38	0.836200	0.014600	0.738100
H391	H39	0.632900	0.026000	0.716400
C481	C48	0.849900	0.201600	0.782800
C491	C49	0.933400	0.282500	0.778000
H401	H40	0.953900	0.334600	0.828900
C501	C50	0.779900	0.202100	0.866900
C511	C51	0.079100	0.728600	0.851400
N51	N5	0.910700	0.529970	0.639340
N61	N6	0.837700	0.816110	0.698660
N71	N7	0.870600	0.130200	0.627700
Zn41	Zn4	0.350080	0.759480	0.985600
C521	C52	0.595500	0.902600	0.944300
H411	H41	0.488400	0.900700	0.910300
C531	C53	0.752100	0.962900	0.946900
H421	H42	0.749300	0.000500	0.915400
C541	C54	0.914400	0.967400	0.996900
C551	C55	0.907100	0.908300	0.040500
H431	H43	0.012900	0.907600	0.073900
C561	C56	0.745200	0.850600	0.034900
H441	H44	0.744500	0.812000	0.065600
N81	N8	0.589000	0.846890	0.987900
