data_XUKNIC_clean_PM
_symmetry_space_group_name_H-M	'P1'
_cell_length_a	21.169000
_cell_length_b	11.219600
_cell_length_c	23.516900
_cell_angle_alpha	90.000000
_cell_angle_beta	90.000000
_cell_angle_gamma	90.000000
_symmetry_Int_Tables_number 1

loop_
_symmetry_equiv_pos_as_xyz
'x,y,z'

loop_
_atom_site_label
_atom_site_type_symbol
_atom_site_fract_x
_atom_site_fract_y
_atom_site_fract_z
Zn11	Zn1	0.401710	0.729370	0.858580
Zn21	Zn2	0.399190	0.005920	0.857170
Zn31	Zn3	0.339590	0.875690	0.962160
Zn41	Zn4	0.486850	0.831460	0.949450
O11	O1	0.411600	0.866700	0.907000
O21	O2	0.484400	0.672900	0.832900
O31	O3	0.545300	0.740600	0.904100
O41	O4	0.769400	0.620100	0.901900
O51	O5	0.805100	0.491300	0.838300
O61	O6	0.399600	0.915300	0.773700
O71	O7	0.350600	0.744300	0.791000
O81	O8	0.174700	0.188400	0.468000
O91	O9	0.126400	0.088200	0.399500
O101	O10	0.108300	0.650500	0.408100
O111	O11	0.161300	0.554400	0.477100
O121	O12	0.604000	0.145100	0.535200
O131	O13	0.531600	0.281000	0.515100
C11	C1	0.534800	0.679500	0.857200
C21	C2	0.592600	0.622100	0.828900
C31	C3	0.651700	0.621500	0.854700
H11	H1	0.658700	0.664900	0.887800
C41	C4	0.701500	0.553800	0.829900
C51	C5	0.689200	0.506400	0.776100
H21	H2	0.722400	0.471800	0.756100
C61	C6	0.630200	0.508000	0.751100
C71	C7	0.583600	0.568800	0.776200
H31	H3	0.544700	0.575400	0.758200
C81	C8	0.761000	0.553300	0.859500
C91	C9	0.618900	0.444300	0.696500
C101	C10	0.652200	0.334600	0.685900
H41	H4	0.681000	0.304900	0.712200
C111	C11	0.639900	0.270900	0.632900
H51	H5	0.663700	0.204100	0.623600
C121	C12	0.591300	0.310800	0.595300
C131	C13	0.574300	0.482600	0.657700
H61	H6	0.553800	0.554800	0.663800
C141	C14	0.362000	0.839900	0.760500
C151	C15	0.326600	0.850400	0.708100
C161	C16	0.333500	0.941900	0.671500
H71	H7	0.364000	0.999400	0.679100
C171	C17	0.252400	0.869200	0.608200
C181	C18	0.245300	0.782900	0.646900
H81	H8	0.214700	0.726000	0.638500
C191	C19	0.275800	0.767300	0.695500
H91	H9	0.265300	0.706100	0.720300
C201	C20	0.218600	0.869600	0.552200
C211	C21	0.205600	0.974100	0.525900
H101	H10	0.221800	0.044800	0.540500
C221	C22	0.166200	0.977000	0.474400
C231	C23	0.151700	0.867400	0.453600
H111	H11	0.132000	0.866400	0.418200
C241	C24	0.192600	0.762600	0.527600
H121	H12	0.196900	0.691300	0.547300
C251	C25	0.162100	0.761700	0.477100
C261	C26	0.156000	0.096500	0.450300
C271	C27	0.147300	0.646900	0.454800
C281	C28	0.296500	0.953800	0.622200
H131	H13	0.302000	0.019900	0.598800
C291	C29	0.559100	0.415600	0.609400
H141	H14	0.526600	0.441600	0.586000
C301	C30	0.573700	0.240500	0.545100
Zn51	Zn5	0.598290	0.270630	0.358580
Zn61	Zn6	0.600810	0.994080	0.357170
Zn71	Zn7	0.660410	0.124310	0.462160
Zn81	Zn8	0.513150	0.168540	0.449450
O141	O14	0.588400	0.133300	0.407000
O151	O15	0.515600	0.327100	0.332900
O161	O16	0.454700	0.259400	0.404100
O171	O17	0.230600	0.379900	0.401900
O181	O18	0.194900	0.508700	0.338300
O191	O19	0.600400	0.084700	0.273700
O201	O20	0.649400	0.255700	0.291000
O211	O21	0.825300	0.811600	0.968000
O221	O22	0.873600	0.911800	0.899500
O231	O23	0.891700	0.349500	0.908100
O241	O24	0.838700	0.445600	0.977100
O251	O25	0.396000	0.854900	0.035200
O261	O26	0.468400	0.719000	0.015100
C311	C31	0.465200	0.320500	0.357200
C321	C32	0.407400	0.377900	0.328900
C331	C33	0.348300	0.378500	0.354700
H151	H15	0.341300	0.335100	0.387800
C341	C34	0.298500	0.446200	0.329900
C351	C35	0.310800	0.493600	0.276100
H161	H16	0.277600	0.528200	0.256100
C361	C36	0.369800	0.492000	0.251100
C371	C37	0.416400	0.431200	0.276200
H171	H17	0.455300	0.424600	0.258200
C381	C38	0.239000	0.446700	0.359500
C391	C39	0.381100	0.555700	0.196500
C401	C40	0.347800	0.665400	0.185900
H181	H18	0.319000	0.695100	0.212200
C411	C41	0.360100	0.729100	0.132900
H191	H19	0.336300	0.795900	0.123600
C421	C42	0.408700	0.689200	0.095300
C431	C43	0.425700	0.517400	0.157700
H201	H20	0.446200	0.445200	0.163800
C441	C44	0.638000	0.160100	0.260500
C451	C45	0.673400	0.149600	0.208100
C461	C46	0.666500	0.058100	0.171500
H211	H21	0.636000	0.000600	0.179100
C471	C47	0.747600	0.130800	0.108200
C481	C48	0.754700	0.217100	0.146900
H221	H22	0.785300	0.274000	0.138500
C491	C49	0.724200	0.232700	0.195500
H231	H23	0.734700	0.293900	0.220300
C501	C50	0.781400	0.130400	0.052200
C511	C51	0.794400	0.025900	0.025900
H241	H24	0.778200	0.955200	0.040500
C521	C52	0.833800	0.023000	0.974400
C531	C53	0.848300	0.132600	0.953600
H251	H25	0.868000	0.133600	0.918200
C541	C54	0.807400	0.237400	0.027600
H261	H26	0.803100	0.308700	0.047300
C551	C55	0.837900	0.238300	0.977100
C561	C56	0.844000	0.903500	0.950300
C571	C57	0.852700	0.353100	0.954800
C581	C58	0.703500	0.046200	0.122200
H271	H27	0.698000	0.980100	0.098800
C591	C59	0.440900	0.584400	0.109400
H281	H28	0.473400	0.558400	0.086000
C601	C60	0.426300	0.759500	0.045100
Zn91	Zn9	0.901710	0.770630	0.858580
Zn101	Zn10	0.899190	0.494080	0.857170
Zn111	Zn11	0.839590	0.624310	0.962160
Zn121	Zn12	0.986850	0.668540	0.949450
O271	O27	0.911600	0.633300	0.907000
O281	O28	0.984400	0.827100	0.832900
O291	O29	0.045300	0.759400	0.904100
O301	O30	0.269400	0.879900	0.901900
O311	O31	0.305100	0.008700	0.838300
O321	O32	0.899600	0.584700	0.773700
O331	O33	0.850600	0.755700	0.791000
O341	O34	0.674700	0.311600	0.468000
O351	O35	0.626400	0.411800	0.399500
O361	O36	0.608300	0.849500	0.408100
O371	O37	0.661300	0.945600	0.477100
O381	O38	0.104000	0.354900	0.535200
O391	O39	0.031600	0.219000	0.515100
C611	C61	0.034800	0.820500	0.857200
C621	C62	0.092600	0.877900	0.828900
C631	C63	0.151700	0.878500	0.854700
H291	H29	0.158700	0.835100	0.887800
C641	C64	0.201500	0.946200	0.829900
C651	C65	0.189200	0.993600	0.776100
H301	H30	0.222400	0.028200	0.756100
C661	C66	0.130200	0.992000	0.751100
C671	C67	0.083600	0.931200	0.776200
H311	H31	0.044700	0.924600	0.758200
C681	C68	0.261000	0.946700	0.859500
C691	C69	0.118900	0.055700	0.696500
C701	C70	0.152200	0.165400	0.685900
H321	H32	0.181000	0.195100	0.712200
C711	C71	0.139900	0.229100	0.632900
H331	H33	0.163700	0.295900	0.623600
C721	C72	0.091300	0.189200	0.595300
C731	C73	0.074300	0.017400	0.657700
H341	H34	0.053800	0.945200	0.663800
C741	C74	0.862000	0.660100	0.760500
C751	C75	0.826600	0.649600	0.708100
C761	C76	0.833500	0.558100	0.671500
H351	H35	0.864000	0.500600	0.679100
C771	C77	0.752400	0.630800	0.608200
C781	C78	0.745300	0.717100	0.646900
H361	H36	0.714700	0.774000	0.638500
C791	C79	0.775800	0.732700	0.695500
H371	H37	0.765300	0.793900	0.720300
C801	C80	0.718600	0.630400	0.552200
C811	C81	0.705600	0.525900	0.525900
H381	H38	0.721800	0.455200	0.540500
C821	C82	0.666200	0.523000	0.474400
C831	C83	0.651700	0.632600	0.453600
H391	H39	0.632000	0.633600	0.418200
C841	C84	0.692600	0.737400	0.527600
H401	H40	0.696900	0.808700	0.547300
C851	C85	0.662100	0.738300	0.477100
C861	C86	0.656000	0.403500	0.450300
C871	C87	0.647300	0.853100	0.454800
C881	C88	0.796500	0.546200	0.622200
H411	H41	0.802000	0.480100	0.598800
C891	C89	0.059100	0.084400	0.609400
H421	H42	0.026600	0.058400	0.586000
C901	C90	0.073700	0.259500	0.545100
Zn131	Zn13	0.098290	0.229370	0.358580
Zn141	Zn14	0.100810	0.505920	0.357170
Zn151	Zn15	0.160410	0.375690	0.462160
Zn161	Zn16	0.013150	0.331460	0.449450
O401	O40	0.088400	0.366700	0.407000
O411	O41	0.015600	0.172900	0.332900
O421	O42	0.954700	0.240600	0.404100
O431	O43	0.730600	0.120100	0.401900
O441	O44	0.694900	0.991300	0.338300
O451	O45	0.100400	0.415300	0.273700
O461	O46	0.149400	0.244300	0.291000
O471	O47	0.325300	0.688400	0.968000
O481	O48	0.373600	0.588200	0.899500
O491	O49	0.391700	0.150500	0.908100
O501	O50	0.338700	0.054400	0.977100
O511	O51	0.896000	0.645100	0.035200
O521	O52	0.968400	0.781000	0.015100
C911	C91	0.965200	0.179500	0.357200
C921	C92	0.907400	0.122100	0.328900
C931	C93	0.848300	0.121500	0.354700
H431	H43	0.841300	0.164900	0.387800
C941	C94	0.798500	0.053800	0.329900
C951	C95	0.810800	0.006400	0.276100
H441	H44	0.777600	0.971800	0.256100
C961	C96	0.869800	0.008000	0.251100
C971	C97	0.916400	0.068800	0.276200
H451	H45	0.955300	0.075400	0.258200
C981	C98	0.739000	0.053300	0.359500
C991	C99	0.881100	0.944300	0.196500
C1001	C100	0.847800	0.834600	0.185900
H461	H46	0.819000	0.804900	0.212200
C1011	C101	0.860100	0.770900	0.132900
H471	H47	0.836300	0.704100	0.123600
C1021	C102	0.908700	0.810800	0.095300
C1031	C103	0.925700	0.982600	0.157700
H481	H48	0.946200	0.054800	0.163800
C1041	C104	0.138000	0.339900	0.260500
C1051	C105	0.173400	0.350400	0.208100
C1061	C106	0.166500	0.441900	0.171500
H491	H49	0.136000	0.499400	0.179100
C1071	C107	0.247600	0.369200	0.108200
C1081	C108	0.254700	0.282900	0.146900
H501	H50	0.285300	0.226000	0.138500
C1091	C109	0.224200	0.267300	0.195500
H511	H51	0.234700	0.206100	0.220300
C1101	C110	0.281400	0.369600	0.052200
C1111	C111	0.294400	0.474100	0.025900
H521	H52	0.278200	0.544800	0.040500
C1121	C112	0.333800	0.477000	0.974400
C1131	C113	0.348300	0.367400	0.953600
H531	H53	0.368000	0.366400	0.918200
C1141	C114	0.307400	0.262600	0.027600
H541	H54	0.303100	0.191300	0.047300
C1151	C115	0.337900	0.261700	0.977100
C1161	C116	0.344000	0.596500	0.950300
C1171	C117	0.352700	0.146900	0.954800
C1181	C118	0.203500	0.453800	0.122200
H551	H55	0.198000	0.519900	0.098800
C1191	C119	0.940900	0.915600	0.109400
H561	H56	0.973400	0.941600	0.086000
C1201	C120	0.926300	0.740500	0.045100
