data_XUKYEI_neutral_PM
_symmetry_space_group_name_H-M	'P1'
_cell_length_a	17.333500
_cell_length_b	17.333500
_cell_length_c	23.829700
_cell_angle_alpha	68.672700
_cell_angle_beta	68.672700
_cell_angle_gamma	89.999900
_symmetry_Int_Tables_number 1

loop_
_symmetry_equiv_pos_as_xyz
'x,y,z'

loop_
_atom_site_label
_atom_site_type_symbol
_atom_site_fract_x
_atom_site_fract_y
_atom_site_fract_z
Cu11	Cu1	0.778570	0.028570	0.942860
Cu21	Cu2	0.028570	0.778570	0.442860
H11	H1	0.757800	0.208200	0.910800
H21	H2	0.726900	0.318200	0.838000
H31	H3	0.711100	0.168900	0.745400
H41	H4	0.741900	0.062000	0.821800
H51	H5	0.643700	0.346500	0.754000
H61	H6	0.685900	0.306900	0.701200
H71	H7	0.814700	0.386300	0.666800
H81	H8	0.776300	0.422800	0.722400
H91	H9	0.717400	0.452000	0.619200
H101	H10	0.688600	0.494200	0.671600
H111	H11	0.761200	0.634800	0.637600
H121	H12	0.870000	0.741700	0.564800
H131	H13	0.981100	0.596100	0.475600
H141	H14	0.875400	0.486900	0.546200
H151	H15	0.831400	0.881000	0.910800
H161	H16	0.935100	0.843800	0.838000
H171	H17	0.043500	0.085700	0.745400
H181	H18	0.936300	0.116200	0.821800
H191	H19	0.102300	0.899500	0.754000
H201	H20	0.112900	0.991900	0.701200
H211	H21	0.018500	0.946900	0.666800
H221	H22	0.001300	0.854800	0.722400
H231	H23	0.163400	0.928800	0.619200
H241	H24	0.139800	0.834200	0.671600
H251	H25	0.101200	0.727600	0.637600
H261	H26	0.065200	0.693500	0.564800
H271	H27	0.043300	0.928300	0.475600
H281	H28	0.078400	0.966900	0.546200
H291	H29	0.208200	0.831400	0.410800
H301	H30	0.318200	0.935100	0.338000
H311	H31	0.168900	0.043500	0.245400
H321	H32	0.062000	0.936300	0.321800
H331	H33	0.346500	0.102300	0.254000
H341	H34	0.306900	0.112900	0.201200
H351	H35	0.386300	0.018500	0.166800
H361	H36	0.422800	0.001300	0.222400
H371	H37	0.452000	0.163400	0.119200
H381	H38	0.494200	0.139800	0.171600
H391	H39	0.634800	0.101200	0.137600
H401	H40	0.741700	0.065200	0.064800
H411	H41	0.596100	0.043300	0.975600
H421	H42	0.486900	0.078400	0.046200
H431	H43	0.881000	0.757800	0.410800
H441	H44	0.843800	0.726900	0.338000
H451	H45	0.085700	0.711100	0.245400
H461	H46	0.116200	0.741900	0.321800
H471	H47	0.899500	0.643700	0.254000
H481	H48	0.991900	0.685900	0.201200
H491	H49	0.946900	0.814700	0.166800
H501	H50	0.854800	0.776300	0.222400
H511	H51	0.928800	0.717400	0.119200
H521	H52	0.834200	0.688600	0.171600
H531	H53	0.727600	0.761200	0.137600
H541	H54	0.693500	0.870000	0.064800
H551	H55	0.928300	0.981100	0.975600
H561	H56	0.966900	0.875400	0.046200
C11	C1	0.748500	0.200400	0.876200
C21	C2	0.729600	0.266200	0.833000
C31	C3	0.714100	0.257900	0.781800
C41	C4	0.720300	0.178900	0.779400
C51	C5	0.739400	0.115400	0.824400
C61	C6	0.696100	0.328200	0.731600
C71	C7	0.763300	0.402800	0.692400
C81	C8	0.736700	0.474400	0.645400
C91	C9	0.804590	0.547090	0.600020
C101	C10	0.805900	0.625600	0.604200
C111	C11	0.871100	0.689200	0.560600
C121	C12	0.935500	0.604300	0.509000
C131	C13	0.872400	0.539000	0.551000
C141	C14	0.875300	0.923400	0.876200
C151	C15	0.937400	0.900800	0.833000
C161	C16	0.004100	0.960300	0.781800
C171	C17	0.000300	0.041700	0.779400
C181	C18	0.936200	0.060200	0.824400
C191	C19	0.072300	0.940200	0.731600
C201	C20	0.044300	0.904800	0.692400
C211	C21	0.117900	0.880200	0.645400
C221	C22	0.095390	0.852890	0.600020
C231	C23	0.089900	0.770200	0.604200
C241	C24	0.068300	0.750200	0.560600
C251	C25	0.055500	0.886700	0.509000
C261	C26	0.076600	0.910000	0.551000
C271	C27	0.200400	0.875300	0.376200
C281	C28	0.266200	0.937400	0.333000
C291	C29	0.257900	0.004100	0.281800
C301	C30	0.178900	0.000300	0.279400
C311	C31	0.115400	0.936200	0.324400
C321	C32	0.328200	0.072300	0.231600
C331	C33	0.402800	0.044300	0.192400
C341	C34	0.474400	0.117900	0.145400
C351	C35	0.547090	0.095390	0.100020
C361	C36	0.625600	0.089900	0.104200
C371	C37	0.689200	0.068300	0.060600
C381	C38	0.604300	0.055500	0.009000
C391	C39	0.539000	0.076600	0.051000
C401	C40	0.923400	0.748500	0.376200
C411	C41	0.900800	0.729600	0.333000
C421	C42	0.960300	0.714100	0.281800
C431	C43	0.041700	0.720300	0.279400
C441	C44	0.060200	0.739400	0.324400
C451	C45	0.940200	0.696100	0.231600
C461	C46	0.904800	0.763300	0.192400
C471	C47	0.880200	0.736700	0.145400
C481	C48	0.852890	0.804590	0.100020
C491	C49	0.770200	0.805900	0.104200
C501	C50	0.750200	0.871100	0.060600
C511	C51	0.886700	0.935500	0.009000
C521	C52	0.910000	0.872400	0.051000
N11	N1	0.754400	0.126700	0.872600
N21	N2	0.935990	0.680690	0.512620
N31	N3	0.873000	0.000700	0.872600
N41	N4	0.051390	0.806690	0.512620
N51	N5	0.126700	0.873000	0.372600
N61	N6	0.680690	0.051390	0.012620
N71	N7	0.000700	0.754400	0.372600
N81	N8	0.806690	0.935990	0.012620
Cl11	Cl1	0.670040	0.917140	0.943260
Cl21	Cl2	0.886700	0.139600	0.943260
Cl31	Cl3	0.917140	0.886700	0.443260
Cl41	Cl4	0.139600	0.670040	0.443260
