data_XULRIH_clean_PM
_symmetry_space_group_name_H-M	'P1'
_cell_length_a	9.149000
_cell_length_b	11.202000
_cell_length_c	14.628000
_cell_angle_alpha	73.526000
_cell_angle_beta	88.045000
_cell_angle_gamma	71.284000
_symmetry_Int_Tables_number 1

loop_
_symmetry_equiv_pos_as_xyz
'x,y,z'

loop_
_atom_site_label
_atom_site_type_symbol
_atom_site_fract_x
_atom_site_fract_y
_atom_site_fract_z
Zn11	Zn1	0.849600	0.183200	0.986360
Zn21	Zn2	0.290600	0.236400	0.739900
Zn31	Zn3	0.505500	0.487300	0.152340
P11	P1	0.750100	0.479200	0.997000
P21	P2	0.065800	0.079600	0.836400
H11	H1	0.973700	0.122800	0.761300
P31	P3	0.588800	0.227500	0.835700
H21	H2	0.647800	0.154600	0.766600
O11	O1	0.659300	0.540900	0.905600
O21	O2	0.669000	0.525000	0.076900
O31	O3	0.793000	0.330000	0.036000
O41	O4	0.014300	0.167800	0.900500
O51	O5	0.102200	0.933300	0.888800
O61	O6	0.192600	0.106200	0.774600
O71	O7	0.674600	0.159900	0.931100
O81	O8	0.431000	0.207500	0.848300
O91	O9	0.577600	0.369100	0.792900
N11	N1	0.638400	0.836100	0.963500
H31	H3	0.622300	0.817800	0.029500
N21	N2	0.146400	0.426500	0.703100
N31	N3	0.582000	0.328600	0.271100
N41	N4	0.656600	0.012800	0.609900
N51	N5	0.833300	0.897700	0.532100
C11	C1	0.787000	0.802600	0.939600
H41	H4	0.866500	0.766800	0.987200
C21	C2	0.821000	0.820700	0.847000
H51	H5	0.923600	0.797600	0.831300
C31	C3	0.521000	0.890300	0.897000
H61	H6	0.419500	0.916700	0.915100
C41	C4	0.549500	0.907400	0.799500
H71	H7	0.469000	0.940200	0.752700
C51	C5	0.704200	0.873100	0.775900
C61	C6	0.167000	0.517000	0.626200
H81	H8	0.247000	0.491000	0.587800
C71	C7	0.075000	0.647000	0.601100
H91	H9	0.097700	0.708200	0.549600
C81	C8	0.030000	0.466000	0.755700
H101	H10	0.018900	0.405500	0.811800
C91	C9	0.925000	0.589900	0.732700
H111	H11	0.839600	0.609800	0.768800
C101	C10	0.947000	0.687600	0.653200
C111	C11	0.697000	0.222900	0.273600
H121	H12	0.749400	0.217800	0.218500
C121	C12	0.744000	0.119900	0.353900
H131	H13	0.828600	0.047700	0.352000
C131	C13	0.504000	0.331000	0.352800
H141	H14	0.419900	0.405100	0.352600
C141	C14	0.545000	0.233000	0.430800
H151	H15	0.487600	0.239300	0.484100
C151	C15	0.672000	0.117900	0.437700
C161	C16	0.737100	0.897600	0.673400
C171	C17	0.844000	0.826700	0.624400
C181	C18	0.719000	0.008700	0.525100
O101	O10	0.853000	0.348000	0.996000
Zn41	Zn4	0.150400	0.816800	0.013640
Zn51	Zn5	0.709400	0.763600	0.260100
Zn61	Zn6	0.494500	0.512700	0.847660
P41	P4	0.249900	0.520800	0.003000
P51	P5	0.934200	0.920400	0.163600
H161	H16	0.026300	0.877200	0.238700
P61	P6	0.411200	0.772500	0.164300
H171	H17	0.352200	0.845400	0.233400
O111	O11	0.340700	0.459100	0.094400
O121	O12	0.331000	0.475000	0.923100
O131	O13	0.207000	0.670000	0.964000
O141	O14	0.985700	0.832200	0.099500
O151	O15	0.897800	0.066700	0.111200
O161	O16	0.807400	0.893800	0.225400
O171	O17	0.325400	0.840100	0.068900
O181	O18	0.569000	0.792500	0.151700
O191	O19	0.422400	0.630900	0.207100
N61	N6	0.361600	0.163900	0.036500
H181	H18	0.377700	0.182200	0.970500
N71	N7	0.853600	0.573500	0.296900
N81	N8	0.418000	0.671400	0.728900
N91	N9	0.343400	0.987200	0.390100
N101	N10	0.166700	0.102300	0.467900
C191	C19	0.213000	0.197400	0.060400
H191	H19	0.133500	0.233200	0.012800
C201	C20	0.179000	0.179300	0.153000
H201	H20	0.076400	0.202400	0.168700
C211	C21	0.479000	0.109700	0.103000
H211	H21	0.580500	0.083300	0.084900
C221	C22	0.450500	0.092600	0.200500
H221	H22	0.531000	0.059800	0.247300
C231	C23	0.295800	0.126900	0.224100
C241	C24	0.833000	0.483000	0.373800
H231	H23	0.753000	0.509000	0.412200
C251	C25	0.925000	0.353000	0.398900
H241	H24	0.902300	0.291800	0.450400
C261	C26	0.970000	0.534000	0.244300
H251	H25	0.981100	0.594500	0.188200
C271	C27	0.075000	0.410100	0.267300
H261	H26	0.160400	0.390200	0.231200
C281	C28	0.053000	0.312400	0.346800
C291	C29	0.303000	0.777100	0.726400
H271	H27	0.250600	0.782200	0.781500
C301	C30	0.256000	0.880100	0.646100
H281	H28	0.171400	0.952300	0.648000
C311	C31	0.496000	0.669000	0.647200
H291	H29	0.580100	0.594900	0.647400
C321	C32	0.455000	0.767000	0.569200
H301	H30	0.512400	0.760700	0.515900
C331	C33	0.328000	0.882100	0.562300
C341	C34	0.262900	0.102400	0.326600
C351	C35	0.156000	0.173300	0.375600
C361	C36	0.281000	0.991300	0.474900
O201	O20	0.147000	0.652000	0.004000
