data_XULVAD_clean_PM
_symmetry_space_group_name_H-M	'P1'
_cell_length_a	8.903600
_cell_length_b	11.122900
_cell_length_c	13.851000
_cell_angle_alpha	106.103000
_cell_angle_beta	90.944000
_cell_angle_gamma	109.830000
_symmetry_Int_Tables_number 1

loop_
_symmetry_equiv_pos_as_xyz
'x,y,z'

loop_
_atom_site_label
_atom_site_type_symbol
_atom_site_fract_x
_atom_site_fract_y
_atom_site_fract_z
Gd11	Gd1	0.777230	0.247360	0.237300
Mn11	Mn1	0.710860	0.590560	0.026700
C11	C1	0.462900	0.703400	0.944200
C21	C2	0.602400	0.838300	0.965900
C31	C3	0.820600	0.973700	0.912500
H11	H1	0.889200	0.988900	0.863700
C41	C4	0.700300	0.285900	0.489400
C51	C5	0.767900	0.435500	0.537200
C61	C6	0.845200	0.074200	0.004300
C71	C7	0.984300	0.207800	0.034900
C81	C8	0.622300	0.941500	0.054400
C91	C9	0.511400	0.935500	0.135900
C101	C10	0.742200	0.638200	0.551000
H21	H2	0.689900	0.688900	0.531700
C111	C11	0.875500	0.702600	0.624400
C121	C12	0.950200	0.852800	0.674400
C131	C13	0.904400	0.500800	0.608800
C141	C14	0.011100	0.434900	0.641600
N11	N1	0.698500	0.854500	0.893500
N21	N2	0.745100	0.059300	0.073700
N31	N3	0.686500	0.504200	0.506900
N41	N4	0.954600	0.632300	0.651900
O11	O1	0.484900	0.612800	0.973800
O21	O2	0.339500	0.692500	0.893800
O31	O3	0.088200	0.227800	0.975700
O41	O4	0.981600	0.288200	0.119300
O51	O5	0.548300	0.043500	0.210100
O61	O6	0.392600	0.835100	0.122200
O71	O7	0.738800	0.237800	0.404400
O81	O8	0.608100	0.221100	0.539000
O91	O9	0.883100	0.925700	0.654800
O101	O10	0.081000	0.892400	0.731600
O111	O11	0.128400	0.513000	0.707500
O121	O12	0.976700	0.313700	0.598300
Gd21	Gd2	0.222770	0.752640	0.762700
Mn21	Mn2	0.289140	0.409440	0.973300
C151	C15	0.537100	0.296600	0.055800
C161	C16	0.397600	0.161700	0.034100
C171	C17	0.179400	0.026300	0.087500
H31	H3	0.110800	0.011100	0.136300
C181	C18	0.299700	0.714100	0.510600
C191	C19	0.232100	0.564500	0.462800
C201	C20	0.154800	0.925800	0.995700
C211	C21	0.015700	0.792200	0.965100
C221	C22	0.377700	0.058500	0.945600
C231	C23	0.488600	0.064500	0.864100
C241	C24	0.257800	0.361800	0.449000
H41	H4	0.310100	0.311100	0.468300
C251	C25	0.124500	0.297400	0.375600
C261	C26	0.049800	0.147200	0.325600
C271	C27	0.095600	0.499200	0.391200
C281	C28	0.988900	0.565100	0.358400
N51	N5	0.301500	0.145500	0.106500
N61	N6	0.254900	0.940700	0.926300
N71	N7	0.313500	0.495800	0.493100
N81	N8	0.045400	0.367700	0.348100
O131	O13	0.515100	0.387200	0.026200
O141	O14	0.660500	0.307500	0.106200
O151	O15	0.911800	0.772200	0.024300
O161	O16	0.018400	0.711800	0.880700
O171	O17	0.451700	0.956500	0.789900
O181	O18	0.607400	0.164900	0.877800
O191	O19	0.261200	0.762200	0.595600
O201	O20	0.391900	0.778900	0.461000
O211	O21	0.116900	0.074300	0.345200
O221	O22	0.919000	0.107600	0.268400
O231	O23	0.871600	0.487000	0.292500
O241	O24	0.023300	0.686300	0.401700
Mn31	Mn3	0.500000	0.000000	0.500000
