data_XUMNIE_clean_PM
_symmetry_space_group_name_H-M	'P1'
_cell_length_a	13.735500
_cell_length_b	40.624000
_cell_length_c	20.830300
_cell_angle_alpha	90.000000
_cell_angle_beta	90.000000
_cell_angle_gamma	90.000000
_symmetry_Int_Tables_number 1

loop_
_symmetry_equiv_pos_as_xyz
'x,y,z'

loop_
_atom_site_label
_atom_site_type_symbol
_atom_site_fract_x
_atom_site_fract_y
_atom_site_fract_z
C11	C1	0.271000	0.687500	0.744000
C21	C2	0.355900	0.662700	0.734600
C31	C3	0.903500	0.897870	0.356600
H11	H1	0.912500	0.893500	0.313200
C41	C4	0.972300	0.916860	0.387900
H21	H2	0.024900	0.925100	0.364800
C51	C5	0.965200	0.923820	0.451600
C61	C6	0.883600	0.911100	0.479800
H31	H3	0.872900	0.914900	0.523200
C71	C7	0.817500	0.893030	0.445900
H41	H4	0.762700	0.885400	0.467500
C81	C8	0.037400	0.943720	0.486000
C91	C9	0.128000	0.947910	0.460600
H51	H5	0.143200	0.938000	0.421600
C101	C10	0.198600	0.966780	0.491700
H61	H6	0.259600	0.969300	0.473100
C111	C11	0.179200	0.981610	0.549200
C121	C12	0.085700	0.977850	0.574500
H71	H7	0.069400	0.988200	0.612800
C131	C13	0.018400	0.959100	0.543500
H81	H8	0.957200	0.956600	0.561900
C141	C14	0.254800	0.028730	0.684500
H91	H9	0.256900	0.048700	0.662800
C151	C15	0.256600	0.028500	0.750700
H101	H10	0.262500	0.048400	0.772500
C161	C16	0.246800	0.028660	0.892500
H111	H11	0.244800	0.048700	0.870900
C171	C17	0.246400	0.028930	0.958100
H121	H12	0.243800	0.048800	0.980200
C181	C18	0.184200	0.020540	0.094300
C191	C19	0.211200	0.034790	0.150600
H131	H13	0.273800	0.031300	0.166200
C201	C20	0.148000	0.054240	0.184700
H141	H14	0.169400	0.064400	0.222100
C211	C21	0.052900	0.059000	0.164600
C221	C22	0.026600	0.044610	0.106300
H151	H15	0.964000	0.047700	0.090400
C231	C23	0.091400	0.026130	0.072300
H161	H16	0.072300	0.017100	0.033300
C241	C24	0.985800	0.078310	0.203900
C251	C25	0.990900	0.077970	0.270800
H171	H17	0.037700	0.065200	0.291500
C261	C26	0.925300	0.096880	0.306500
H181	H18	0.930200	0.096600	0.351000
C271	C27	0.849500	0.114460	0.216100
H191	H19	0.800300	0.126800	0.197200
C281	C28	0.910200	0.096660	0.176900
H201	H20	0.900900	0.096800	0.132700
C291	C29	0.616600	0.836700	0.432400
C301	C30	0.572500	0.812090	0.478800
C311	C31	0.503000	0.821310	0.518200
H211	H21	0.482600	0.843100	0.517100
C321	C32	0.459200	0.800200	0.560900
H221	H22	0.410400	0.808000	0.587900
C331	C33	0.487100	0.767800	0.564000
C341	C34	0.559800	0.759300	0.526700
H231	H23	0.582900	0.737800	0.529900
C351	C35	0.604700	0.780050	0.482800
H241	H24	0.655100	0.772500	0.456800
C361	C36	0.436620	0.744090	0.605830
C371	C37	0.347860	0.751700	0.634250
H251	H25	0.316700	0.771400	0.624300
C381	C38	0.305700	0.729920	0.677570
H261	H26	0.246400	0.735000	0.696600
C391	C39	0.352400	0.700530	0.692480
C401	C40	0.441100	0.692920	0.664070
H271	H27	0.472300	0.673300	0.674000
C411	C41	0.483200	0.714700	0.620740
H281	H28	0.542600	0.709600	0.601700
N11	N1	0.826420	0.885790	0.384790
N21	N2	0.857400	0.114910	0.280020
O11	O1	0.682470	0.824350	0.397170
O21	O2	0.593190	0.865140	0.433810
O31	O3	0.311200	0.669840	0.777060
Zn11	Zn1	0.732360	0.856040	0.335080
O41	O4	0.375800	0.634200	0.722900
O51	O5	0.185300	0.689500	0.752700
C421	C42	0.229000	0.312500	0.744000
C431	C43	0.144100	0.337300	0.734600
C441	C44	0.596500	0.102130	0.356600
H291	H29	0.587500	0.106500	0.313200
C451	C45	0.527700	0.083140	0.387900
H301	H30	0.475100	0.074900	0.364800
C461	C46	0.534800	0.076180	0.451600
C471	C47	0.616400	0.088900	0.479800
H311	H31	0.627100	0.085100	0.523200
C481	C48	0.682500	0.106970	0.445900
H321	H32	0.737300	0.114600	0.467500
C491	C49	0.462600	0.056280	0.486000
C501	C50	0.372000	0.052090	0.460600
H331	H33	0.356800	0.062000	0.421600
C511	C51	0.301400	0.033220	0.491700
H341	H34	0.240400	0.030700	0.473100
C521	C52	0.320800	0.018390	0.549200
C531	C53	0.414300	0.022150	0.574500
H351	H35	0.430600	0.011800	0.612800
C541	C54	0.481600	0.040900	0.543500
H361	H36	0.542800	0.043400	0.561900
C551	C55	0.245200	0.971270	0.684500
H371	H37	0.243100	0.951300	0.662800
C561	C56	0.243400	0.971500	0.750700
H381	H38	0.237500	0.951600	0.772500
C571	C57	0.253200	0.971340	0.892500
H391	H39	0.255200	0.951300	0.870900
C581	C58	0.253600	0.971070	0.958100
H401	H40	0.256200	0.951200	0.980200
C591	C59	0.315800	0.979460	0.094300
C601	C60	0.288800	0.965210	0.150600
H411	H41	0.226200	0.968700	0.166200
C611	C61	0.352000	0.945760	0.184700
H421	H42	0.330600	0.935600	0.222100
C621	C62	0.447100	0.941000	0.164600
C631	C63	0.473400	0.955390	0.106300
H431	H43	0.536000	0.952300	0.090400
C641	C64	0.408600	0.973870	0.072300
H441	H44	0.427700	0.982900	0.033300
C651	C65	0.514200	0.921690	0.203900
C661	C66	0.509100	0.922030	0.270800
H451	H45	0.462300	0.934800	0.291500
C671	C67	0.574700	0.903120	0.306500
H461	H46	0.569800	0.903400	0.351000
C681	C68	0.650500	0.885540	0.216100
H471	H47	0.699700	0.873200	0.197200
C691	C69	0.589800	0.903340	0.176900
H481	H48	0.599100	0.903200	0.132700
C701	C70	0.883400	0.163300	0.432400
C711	C71	0.927500	0.187910	0.478800
C721	C72	0.997000	0.178690	0.518200
H491	H49	0.017400	0.156900	0.517100
C731	C73	0.040800	0.199800	0.560900
H501	H50	0.089600	0.192000	0.587900
C741	C74	0.012900	0.232200	0.564000
C751	C75	0.940200	0.240700	0.526700
H511	H51	0.917100	0.262200	0.529900
C761	C76	0.895300	0.219950	0.482800
H521	H52	0.844900	0.227500	0.456800
C771	C77	0.063380	0.255910	0.605830
C781	C78	0.152140	0.248300	0.634250
H531	H53	0.183300	0.228600	0.624300
C791	C79	0.194300	0.270080	0.677570
H541	H54	0.253600	0.265000	0.696600
C801	C80	0.147600	0.299470	0.692480
C811	C81	0.058900	0.307080	0.664070
H551	H55	0.027700	0.326700	0.674000
C821	C82	0.016800	0.285300	0.620740
H561	H56	0.957400	0.290400	0.601700
N31	N3	0.673580	0.114210	0.384790
N41	N4	0.642600	0.885090	0.280020
O61	O6	0.817530	0.175650	0.397170
O71	O7	0.906810	0.134860	0.433810
O81	O8	0.188800	0.330160	0.777060
Zn21	Zn2	0.767640	0.143960	0.335080
O91	O9	0.124200	0.365800	0.722900
O101	O10	0.314700	0.310500	0.752700
C831	C83	0.771000	0.812500	0.244000
C841	C84	0.855900	0.837300	0.234600
C851	C85	0.403500	0.602130	0.856600
H571	H57	0.412500	0.606500	0.813200
C861	C86	0.472300	0.583140	0.887900
H581	H58	0.524900	0.574900	0.864800
C871	C87	0.465200	0.576180	0.951600
C881	C88	0.383600	0.588900	0.979800
H591	H59	0.372900	0.585100	0.023200
C891	C89	0.317500	0.606970	0.945900
H601	H60	0.262700	0.614600	0.967500
C901	C90	0.537400	0.556280	0.986000
C911	C91	0.628000	0.552090	0.960600
H611	H61	0.643200	0.562000	0.921600
C921	C92	0.698600	0.533220	0.991700
H621	H62	0.759600	0.530700	0.973100
C931	C93	0.679200	0.518390	0.049200
C941	C94	0.585700	0.522150	0.074500
H631	H63	0.569400	0.511800	0.112800
C951	C95	0.518400	0.540900	0.043500
H641	H64	0.457200	0.543400	0.061900
C961	C96	0.754800	0.471270	0.184500
H651	H65	0.756900	0.451300	0.162800
C971	C97	0.756600	0.471500	0.250700
H661	H66	0.762500	0.451600	0.272500
C981	C98	0.746800	0.471340	0.392500
H671	H67	0.744800	0.451300	0.370900
C991	C99	0.746400	0.471070	0.458100
H681	H68	0.743800	0.451200	0.480200
C1001	C100	0.684200	0.479460	0.594300
C1011	C101	0.711200	0.465210	0.650600
H691	H69	0.773800	0.468700	0.666200
C1021	C102	0.648000	0.445760	0.684700
H701	H70	0.669400	0.435600	0.722100
C1031	C103	0.552900	0.441000	0.664600
C1041	C104	0.526600	0.455390	0.606300
H711	H71	0.464000	0.452300	0.590400
C1051	C105	0.591400	0.473870	0.572300
H721	H72	0.572300	0.482900	0.533300
C1061	C106	0.485800	0.421690	0.703900
C1071	C107	0.490900	0.422030	0.770800
H731	H73	0.537700	0.434800	0.791500
C1081	C108	0.425300	0.403120	0.806500
H741	H74	0.430200	0.403400	0.851000
C1091	C109	0.349500	0.385540	0.716100
H751	H75	0.300300	0.373200	0.697200
C1101	C110	0.410200	0.403340	0.676900
H761	H76	0.400900	0.403200	0.632700
C1111	C111	0.116600	0.663300	0.932400
C1121	C112	0.072500	0.687910	0.978800
C1131	C113	0.003000	0.678690	0.018200
H771	H77	0.982600	0.656900	0.017100
C1141	C114	0.959200	0.699800	0.060900
H781	H78	0.910400	0.692000	0.087900
C1151	C115	0.987100	0.732200	0.064000
C1161	C116	0.059800	0.740700	0.026700
H791	H79	0.082900	0.762200	0.029900
C1171	C117	0.104700	0.719950	0.982800
H801	H80	0.155100	0.727500	0.956800
C1181	C118	0.936620	0.755910	0.105830
C1191	C119	0.847860	0.748300	0.134250
H811	H81	0.816700	0.728600	0.124300
C1201	C120	0.805700	0.770080	0.177570
H821	H82	0.746400	0.765000	0.196600
C1211	C121	0.852400	0.799470	0.192480
C1221	C122	0.941100	0.807080	0.164070
H831	H83	0.972300	0.826700	0.174000
C1231	C123	0.983200	0.785300	0.120740
H841	H84	0.042600	0.790400	0.101700
N51	N5	0.326420	0.614210	0.884790
N61	N6	0.357400	0.385090	0.780020
O111	O11	0.182470	0.675650	0.897170
O121	O12	0.093190	0.634860	0.933810
O131	O13	0.811200	0.830160	0.277060
Zn31	Zn3	0.232360	0.643960	0.835080
O141	O14	0.875800	0.865800	0.222900
O151	O15	0.685300	0.810500	0.252700
C1241	C124	0.729000	0.187500	0.244000
C1251	C125	0.644100	0.162700	0.234600
C1261	C126	0.096500	0.397870	0.856600
H851	H85	0.087500	0.393500	0.813200
C1271	C127	0.027700	0.416860	0.887900
H861	H86	0.975100	0.425100	0.864800
C1281	C128	0.034800	0.423820	0.951600
C1291	C129	0.116400	0.411100	0.979800
H871	H87	0.127100	0.414900	0.023200
C1301	C130	0.182500	0.393030	0.945900
H881	H88	0.237300	0.385400	0.967500
C1311	C131	0.962600	0.443720	0.986000
C1321	C132	0.872000	0.447910	0.960600
H891	H89	0.856800	0.438000	0.921600
C1331	C133	0.801400	0.466780	0.991700
H901	H90	0.740400	0.469300	0.973100
C1341	C134	0.820800	0.481610	0.049200
C1351	C135	0.914300	0.477850	0.074500
H911	H91	0.930600	0.488200	0.112800
C1361	C136	0.981600	0.459100	0.043500
H921	H92	0.042800	0.456600	0.061900
C1371	C137	0.745200	0.528730	0.184500
H931	H93	0.743100	0.548700	0.162800
C1381	C138	0.743400	0.528500	0.250700
H941	H94	0.737500	0.548400	0.272500
C1391	C139	0.753200	0.528660	0.392500
H951	H95	0.755200	0.548700	0.370900
C1401	C140	0.753600	0.528930	0.458100
H961	H96	0.756200	0.548800	0.480200
C1411	C141	0.815800	0.520540	0.594300
C1421	C142	0.788800	0.534790	0.650600
H971	H97	0.726200	0.531300	0.666200
C1431	C143	0.852000	0.554240	0.684700
H981	H98	0.830600	0.564400	0.722100
C1441	C144	0.947100	0.559000	0.664600
C1451	C145	0.973400	0.544610	0.606300
H991	H99	0.036000	0.547700	0.590400
C1461	C146	0.908600	0.526130	0.572300
H1001	H100	0.927700	0.517100	0.533300
C1471	C147	0.014200	0.578310	0.703900
C1481	C148	0.009100	0.577970	0.770800
H1011	H101	0.962300	0.565200	0.791500
C1491	C149	0.074700	0.596880	0.806500
H1021	H102	0.069800	0.596600	0.851000
C1501	C150	0.150500	0.614460	0.716100
H1031	H103	0.199700	0.626800	0.697200
C1511	C151	0.089800	0.596660	0.676900
H1041	H104	0.099100	0.596800	0.632700
C1521	C152	0.383400	0.336700	0.932400
C1531	C153	0.427500	0.312090	0.978800
C1541	C154	0.497000	0.321310	0.018200
H1051	H105	0.517400	0.343100	0.017100
C1551	C155	0.540800	0.300200	0.060900
H1061	H106	0.589600	0.308000	0.087900
C1561	C156	0.512900	0.267800	0.064000
C1571	C157	0.440200	0.259300	0.026700
H1071	H107	0.417100	0.237800	0.029900
C1581	C158	0.395300	0.280050	0.982800
H1081	H108	0.344900	0.272500	0.956800
C1591	C159	0.563380	0.244090	0.105830
C1601	C160	0.652140	0.251700	0.134250
H1091	H109	0.683300	0.271400	0.124300
C1611	C161	0.694300	0.229920	0.177570
H1101	H110	0.753600	0.235000	0.196600
C1621	C162	0.647600	0.200530	0.192480
C1631	C163	0.558900	0.192920	0.164070
H1111	H111	0.527700	0.173300	0.174000
C1641	C164	0.516800	0.214700	0.120740
H1121	H112	0.457400	0.209600	0.101700
N71	N7	0.173580	0.385790	0.884790
N81	N8	0.142600	0.614910	0.780020
O161	O16	0.317530	0.324350	0.897170
O171	O17	0.406810	0.365140	0.933810
O181	O18	0.688800	0.169840	0.277060
Zn41	Zn4	0.267640	0.356040	0.835080
O191	O19	0.624200	0.134200	0.222900
O201	O20	0.814700	0.189500	0.252700
C1651	C165	0.250000	0.000000	0.650400
C1661	C166	0.250000	0.000000	0.785600
C1671	C167	0.250000	0.000000	0.856600
C1681	C168	0.250000	0.000000	0.991000
N91	N9	0.250000	0.000000	0.581920
N101	N10	0.250000	0.000000	0.059290
C1691	C169	0.750000	0.500000	0.150400
C1701	C170	0.750000	0.500000	0.285600
C1711	C171	0.750000	0.500000	0.356600
C1721	C172	0.750000	0.500000	0.491000
N111	N11	0.750000	0.500000	0.081920
N121	N12	0.750000	0.500000	0.559290
C1731	C173	0.229000	0.187500	0.756000
C1741	C174	0.144100	0.162700	0.765400
C1751	C175	0.596500	0.397870	0.143400
H1131	H113	0.587500	0.393500	0.186800
C1761	C176	0.527700	0.416860	0.112100
H1141	H114	0.475100	0.425100	0.135200
C1771	C177	0.534800	0.423820	0.048400
C1781	C178	0.616400	0.411100	0.020200
H1151	H115	0.627100	0.414900	0.976800
C1791	C179	0.682500	0.393030	0.054100
H1161	H116	0.737300	0.385400	0.032500
C1801	C180	0.462600	0.443720	0.014000
C1811	C181	0.372000	0.447910	0.039400
H1171	H117	0.356800	0.438000	0.078400
C1821	C182	0.301400	0.466780	0.008300
H1181	H118	0.240400	0.469300	0.026900
C1831	C183	0.320800	0.481610	0.950800
C1841	C184	0.414300	0.477850	0.925500
H1191	H119	0.430600	0.488200	0.887200
C1851	C185	0.481600	0.459100	0.956500
H1201	H120	0.542800	0.456600	0.938100
C1861	C186	0.245200	0.528730	0.815500
H1211	H121	0.243100	0.548700	0.837200
C1871	C187	0.243400	0.528500	0.749300
H1221	H122	0.237500	0.548400	0.727500
C1881	C188	0.253200	0.528660	0.607500
H1231	H123	0.255200	0.548700	0.629100
C1891	C189	0.253600	0.528930	0.541900
H1241	H124	0.256200	0.548800	0.519800
C1901	C190	0.315800	0.520540	0.405700
C1911	C191	0.288800	0.534790	0.349400
H1251	H125	0.226200	0.531300	0.333800
C1921	C192	0.352000	0.554240	0.315300
H1261	H126	0.330600	0.564400	0.277900
C1931	C193	0.447100	0.559000	0.335400
C1941	C194	0.473400	0.544610	0.393700
H1271	H127	0.536000	0.547700	0.409600
C1951	C195	0.408600	0.526130	0.427700
H1281	H128	0.427700	0.517100	0.466700
C1961	C196	0.514200	0.578310	0.296100
C1971	C197	0.509100	0.577970	0.229200
H1291	H129	0.462300	0.565200	0.208500
C1981	C198	0.574700	0.596880	0.193500
H1301	H130	0.569800	0.596600	0.149000
C1991	C199	0.650500	0.614460	0.283900
H1311	H131	0.699700	0.626800	0.302800
C2001	C200	0.589800	0.596660	0.323100
H1321	H132	0.599100	0.596800	0.367300
C2011	C201	0.883400	0.336700	0.067600
C2021	C202	0.927500	0.312090	0.021200
C2031	C203	0.997000	0.321310	0.981800
H1331	H133	0.017400	0.343100	0.982900
C2041	C204	0.040800	0.300200	0.939100
H1341	H134	0.089600	0.308000	0.912100
C2051	C205	0.012900	0.267800	0.936000
C2061	C206	0.940200	0.259300	0.973300
H1351	H135	0.917100	0.237800	0.970100
C2071	C207	0.895300	0.280050	0.017200
H1361	H136	0.844900	0.272500	0.043200
C2081	C208	0.063380	0.244090	0.894170
C2091	C209	0.152140	0.251700	0.865750
H1371	H137	0.183300	0.271400	0.875700
C2101	C210	0.194300	0.229920	0.822430
H1381	H138	0.253600	0.235000	0.803400
C2111	C211	0.147600	0.200530	0.807520
C2121	C212	0.058900	0.192920	0.835930
H1391	H139	0.027700	0.173300	0.826000
C2131	C213	0.016800	0.214700	0.879260
H1401	H140	0.957400	0.209600	0.898300
N131	N13	0.673580	0.385790	0.115210
N141	N14	0.642600	0.614910	0.219980
O211	O21	0.817530	0.324350	0.102830
O221	O22	0.906810	0.365140	0.066190
O231	O23	0.188800	0.169840	0.722940
Zn51	Zn5	0.767640	0.356040	0.164920
O241	O24	0.124200	0.134200	0.777100
O251	O25	0.314700	0.189500	0.747300
C2141	C214	0.271000	0.812500	0.756000
C2151	C215	0.355900	0.837300	0.765400
C2161	C216	0.903500	0.602130	0.143400
H1411	H141	0.912500	0.606500	0.186800
C2171	C217	0.972300	0.583140	0.112100
H1421	H142	0.024900	0.574900	0.135200
C2181	C218	0.965200	0.576180	0.048400
C2191	C219	0.883600	0.588900	0.020200
H1431	H143	0.872900	0.585100	0.976800
C2201	C220	0.817500	0.606970	0.054100
H1441	H144	0.762700	0.614600	0.032500
C2211	C221	0.037400	0.556280	0.014000
C2221	C222	0.128000	0.552090	0.039400
H1451	H145	0.143200	0.562000	0.078400
C2231	C223	0.198600	0.533220	0.008300
H1461	H146	0.259600	0.530700	0.026900
C2241	C224	0.179200	0.518390	0.950800
C2251	C225	0.085700	0.522150	0.925500
H1471	H147	0.069400	0.511800	0.887200
C2261	C226	0.018400	0.540900	0.956500
H1481	H148	0.957200	0.543400	0.938100
C2271	C227	0.254800	0.471270	0.815500
H1491	H149	0.256900	0.451300	0.837200
C2281	C228	0.256600	0.471500	0.749300
H1501	H150	0.262500	0.451600	0.727500
C2291	C229	0.246800	0.471340	0.607500
H1511	H151	0.244800	0.451300	0.629100
C2301	C230	0.246400	0.471070	0.541900
H1521	H152	0.243800	0.451200	0.519800
C2311	C231	0.184200	0.479460	0.405700
C2321	C232	0.211200	0.465210	0.349400
H1531	H153	0.273800	0.468700	0.333800
C2331	C233	0.148000	0.445760	0.315300
H1541	H154	0.169400	0.435600	0.277900
C2341	C234	0.052900	0.441000	0.335400
C2351	C235	0.026600	0.455390	0.393700
H1551	H155	0.964000	0.452300	0.409600
C2361	C236	0.091400	0.473870	0.427700
H1561	H156	0.072300	0.482900	0.466700
C2371	C237	0.985800	0.421690	0.296100
C2381	C238	0.990900	0.422030	0.229200
H1571	H157	0.037700	0.434800	0.208500
C2391	C239	0.925300	0.403120	0.193500
H1581	H158	0.930200	0.403400	0.149000
C2401	C240	0.849500	0.385540	0.283900
H1591	H159	0.800300	0.373200	0.302800
C2411	C241	0.910200	0.403340	0.323100
H1601	H160	0.900900	0.403200	0.367300
C2421	C242	0.616600	0.663300	0.067600
C2431	C243	0.572500	0.687910	0.021200
C2441	C244	0.503000	0.678690	0.981800
H1611	H161	0.482600	0.656900	0.982900
C2451	C245	0.459200	0.699800	0.939100
H1621	H162	0.410400	0.692000	0.912100
C2461	C246	0.487100	0.732200	0.936000
C2471	C247	0.559800	0.740700	0.973300
H1631	H163	0.582900	0.762200	0.970100
C2481	C248	0.604700	0.719950	0.017200
H1641	H164	0.655100	0.727500	0.043200
C2491	C249	0.436620	0.755910	0.894170
C2501	C250	0.347860	0.748300	0.865750
H1651	H165	0.316700	0.728600	0.875700
C2511	C251	0.305700	0.770080	0.822430
H1661	H166	0.246400	0.765000	0.803400
C2521	C252	0.352400	0.799470	0.807520
C2531	C253	0.441100	0.807080	0.835930
H1671	H167	0.472300	0.826700	0.826000
C2541	C254	0.483200	0.785300	0.879260
H1681	H168	0.542600	0.790400	0.898300
N151	N15	0.826420	0.614210	0.115210
N161	N16	0.857400	0.385090	0.219980
O261	O26	0.682470	0.675650	0.102830
O271	O27	0.593190	0.634860	0.066190
O281	O28	0.311200	0.830160	0.722940
Zn61	Zn6	0.732360	0.643960	0.164920
O291	O29	0.375800	0.865800	0.777100
O301	O30	0.185300	0.810500	0.747300
C2551	C255	0.729000	0.312500	0.256000
C2561	C256	0.644100	0.337300	0.265400
C2571	C257	0.096500	0.102130	0.643400
H1691	H169	0.087500	0.106500	0.686800
C2581	C258	0.027700	0.083140	0.612100
H1701	H170	0.975100	0.074900	0.635200
C2591	C259	0.034800	0.076180	0.548400
C2601	C260	0.116400	0.088900	0.520200
H1711	H171	0.127100	0.085100	0.476800
C2611	C261	0.182500	0.106970	0.554100
H1721	H172	0.237300	0.114600	0.532500
C2621	C262	0.962600	0.056280	0.514000
C2631	C263	0.872000	0.052090	0.539400
H1731	H173	0.856800	0.062000	0.578400
C2641	C264	0.801400	0.033220	0.508300
H1741	H174	0.740400	0.030700	0.526900
C2651	C265	0.820800	0.018390	0.450800
C2661	C266	0.914300	0.022150	0.425500
H1751	H175	0.930600	0.011800	0.387200
C2671	C267	0.981600	0.040900	0.456500
H1761	H176	0.042800	0.043400	0.438100
C2681	C268	0.745200	0.971270	0.315500
H1771	H177	0.743100	0.951300	0.337200
C2691	C269	0.743400	0.971500	0.249300
H1781	H178	0.737500	0.951600	0.227500
C2701	C270	0.753200	0.971340	0.107500
H1791	H179	0.755200	0.951300	0.129100
C2711	C271	0.753600	0.971070	0.041900
H1801	H180	0.756200	0.951200	0.019800
C2721	C272	0.815800	0.979460	0.905700
C2731	C273	0.788800	0.965210	0.849400
H1811	H181	0.726200	0.968700	0.833800
C2741	C274	0.852000	0.945760	0.815300
H1821	H182	0.830600	0.935600	0.777900
C2751	C275	0.947100	0.941000	0.835400
C2761	C276	0.973400	0.955390	0.893700
H1831	H183	0.036000	0.952300	0.909600
C2771	C277	0.908600	0.973870	0.927700
H1841	H184	0.927700	0.982900	0.966700
C2781	C278	0.014200	0.921690	0.796100
C2791	C279	0.009100	0.922030	0.729200
H1851	H185	0.962300	0.934800	0.708500
C2801	C280	0.074700	0.903120	0.693500
H1861	H186	0.069800	0.903400	0.649000
C2811	C281	0.150500	0.885540	0.783900
H1871	H187	0.199700	0.873200	0.802800
C2821	C282	0.089800	0.903340	0.823100
H1881	H188	0.099100	0.903200	0.867300
C2831	C283	0.383400	0.163300	0.567600
C2841	C284	0.427500	0.187910	0.521200
C2851	C285	0.497000	0.178690	0.481800
H1891	H189	0.517400	0.156900	0.482900
C2861	C286	0.540800	0.199800	0.439100
H1901	H190	0.589600	0.192000	0.412100
C2871	C287	0.512900	0.232200	0.436000
C2881	C288	0.440200	0.240700	0.473300
H1911	H191	0.417100	0.262200	0.470100
C2891	C289	0.395300	0.219950	0.517200
H1921	H192	0.344900	0.227500	0.543200
C2901	C290	0.563380	0.255910	0.394170
C2911	C291	0.652140	0.248300	0.365750
H1931	H193	0.683300	0.228600	0.375700
C2921	C292	0.694300	0.270080	0.322430
H1941	H194	0.753600	0.265000	0.303400
C2931	C293	0.647600	0.299470	0.307520
C2941	C294	0.558900	0.307080	0.335930
H1951	H195	0.527700	0.326700	0.326000
C2951	C295	0.516800	0.285300	0.379260
H1961	H196	0.457400	0.290400	0.398300
N171	N17	0.173580	0.114210	0.615210
N181	N18	0.142600	0.885090	0.719980
O311	O31	0.317530	0.175650	0.602830
O321	O32	0.406810	0.134860	0.566190
O331	O33	0.688800	0.330160	0.222940
Zn71	Zn7	0.267640	0.143960	0.664920
O341	O34	0.624200	0.365800	0.277100
O351	O35	0.814700	0.310500	0.247300
C2961	C296	0.771000	0.687500	0.256000
C2971	C297	0.855900	0.662700	0.265400
C2981	C298	0.403500	0.897870	0.643400
H1971	H197	0.412500	0.893500	0.686800
C2991	C299	0.472300	0.916860	0.612100
H1981	H198	0.524900	0.925100	0.635200
C3001	C300	0.465200	0.923820	0.548400
C3011	C301	0.383600	0.911100	0.520200
H1991	H199	0.372900	0.914900	0.476800
C3021	C302	0.317500	0.893030	0.554100
H2001	H200	0.262700	0.885400	0.532500
C3031	C303	0.537400	0.943720	0.514000
C3041	C304	0.628000	0.947910	0.539400
H2011	H201	0.643200	0.938000	0.578400
C3051	C305	0.698600	0.966780	0.508300
H2021	H202	0.759600	0.969300	0.526900
C3061	C306	0.679200	0.981610	0.450800
C3071	C307	0.585700	0.977850	0.425500
H2031	H203	0.569400	0.988200	0.387200
C3081	C308	0.518400	0.959100	0.456500
H2041	H204	0.457200	0.956600	0.438100
C3091	C309	0.754800	0.028730	0.315500
H2051	H205	0.756900	0.048700	0.337200
C3101	C310	0.756600	0.028500	0.249300
H2061	H206	0.762500	0.048400	0.227500
C3111	C311	0.746800	0.028660	0.107500
H2071	H207	0.744800	0.048700	0.129100
C3121	C312	0.746400	0.028930	0.041900
H2081	H208	0.743800	0.048800	0.019800
C3131	C313	0.684200	0.020540	0.905700
C3141	C314	0.711200	0.034790	0.849400
H2091	H209	0.773800	0.031300	0.833800
C3151	C315	0.648000	0.054240	0.815300
H2101	H210	0.669400	0.064400	0.777900
C3161	C316	0.552900	0.059000	0.835400
C3171	C317	0.526600	0.044610	0.893700
H2111	H211	0.464000	0.047700	0.909600
C3181	C318	0.591400	0.026130	0.927700
H2121	H212	0.572300	0.017100	0.966700
C3191	C319	0.485800	0.078310	0.796100
C3201	C320	0.490900	0.077970	0.729200
H2131	H213	0.537700	0.065200	0.708500
C3211	C321	0.425300	0.096880	0.693500
H2141	H214	0.430200	0.096600	0.649000
C3221	C322	0.349500	0.114460	0.783900
H2151	H215	0.300300	0.126800	0.802800
C3231	C323	0.410200	0.096660	0.823100
H2161	H216	0.400900	0.096800	0.867300
C3241	C324	0.116600	0.836700	0.567600
C3251	C325	0.072500	0.812090	0.521200
C3261	C326	0.003000	0.821310	0.481800
H2171	H217	0.982600	0.843100	0.482900
C3271	C327	0.959200	0.800200	0.439100
H2181	H218	0.910400	0.808000	0.412100
C3281	C328	0.987100	0.767800	0.436000
C3291	C329	0.059800	0.759300	0.473300
H2191	H219	0.082900	0.737800	0.470100
C3301	C330	0.104700	0.780050	0.517200
H2201	H220	0.155100	0.772500	0.543200
C3311	C331	0.936620	0.744090	0.394170
C3321	C332	0.847860	0.751700	0.365750
H2211	H221	0.816700	0.771400	0.375700
C3331	C333	0.805700	0.729920	0.322430
H2221	H222	0.746400	0.735000	0.303400
C3341	C334	0.852400	0.700530	0.307520
C3351	C335	0.941100	0.692920	0.335930
H2231	H223	0.972300	0.673300	0.326000
C3361	C336	0.983200	0.714700	0.379260
H2241	H224	0.042600	0.709600	0.398300
N191	N19	0.326420	0.885790	0.615210
N201	N20	0.357400	0.114910	0.719980
O361	O36	0.182470	0.824350	0.602830
O371	O37	0.093190	0.865140	0.566190
O381	O38	0.811200	0.669840	0.222940
Zn81	Zn8	0.232360	0.856040	0.664920
O391	O39	0.875800	0.634200	0.277100
O401	O40	0.685300	0.689500	0.247300
C3371	C337	0.250000	0.500000	0.849600
C3381	C338	0.250000	0.500000	0.714400
C3391	C339	0.250000	0.500000	0.643400
C3401	C340	0.250000	0.500000	0.509000
N211	N21	0.250000	0.500000	0.918080
N221	N22	0.250000	0.500000	0.440710
C3411	C341	0.750000	0.000000	0.349600
C3421	C342	0.750000	0.000000	0.214400
C3431	C343	0.750000	0.000000	0.143400
C3441	C344	0.750000	0.000000	0.009000
N231	N23	0.750000	0.000000	0.418080
N241	N24	0.750000	0.000000	0.940710
