data_XUMNEA_clean_PM
_symmetry_space_group_name_H-M	'P1'
_cell_length_a	8.830500
_cell_length_b	19.978700
_cell_length_c	25.742500
_cell_angle_alpha	90.000000
_cell_angle_beta	96.821000
_cell_angle_gamma	90.000000
_symmetry_Int_Tables_number 1

loop_
_symmetry_equiv_pos_as_xyz
'x,y,z'

loop_
_atom_site_label
_atom_site_type_symbol
_atom_site_fract_x
_atom_site_fract_y
_atom_site_fract_z
C11	C1	0.387200	0.013100	0.567440
H11	H1	0.381500	0.984800	0.538600
C21	C2	0.433300	0.986300	0.616180
H21	H2	0.459900	0.941400	0.619300
C31	C3	0.440100	0.025740	0.660040
C41	C4	0.401600	0.092700	0.652030
H31	H3	0.404300	0.121700	0.680400
C51	C5	0.360200	0.115600	0.602790
H41	H4	0.336700	0.160800	0.598600
C61	C6	0.484800	0.998720	0.713580
C71	C7	0.456000	0.932600	0.725000
H51	H5	0.411900	0.904500	0.698600
C81	C8	0.491600	0.907500	0.774690
H61	H6	0.473000	0.862700	0.781400
C91	C9	0.555100	0.948700	0.814770
C101	C10	0.584900	0.014600	0.803720
H71	H7	0.629100	0.042600	0.830100
C111	C11	0.549500	0.039200	0.753680
H81	H8	0.569600	0.083800	0.746800
C121	C12	0.468600	0.879100	0.883020
C131	C13	0.318100	0.898100	0.876990
H91	H9	0.289400	0.938700	0.861000
C141	C14	0.209500	0.857100	0.894610
H101	H10	0.107600	0.869900	0.889600
C151	C15	0.249000	0.797030	0.919630
C161	C16	0.398900	0.778500	0.924140
H111	H11	0.427400	0.737700	0.939600
C171	C17	0.510000	0.818700	0.906360
H121	H12	0.611400	0.805000	0.910100
C181	C18	0.131400	0.756000	0.941290
C191	C19	0.006000	0.785700	0.959540
H131	H13	0.994200	0.832000	0.958000
C201	C20	0.899200	0.746800	0.979900
H141	H14	0.816300	0.767900	0.992000
C211	C21	0.029700	0.651700	0.965470
H151	H15	0.038400	0.605400	0.967300
C221	C22	0.142100	0.687500	0.944690
H161	H16	0.224400	0.665300	0.933100
C231	C23	0.700200	0.945800	0.903480
C241	C24	0.679300	0.949500	0.955530
H171	H17	0.585300	0.938100	0.965800
C251	C25	0.796100	0.970100	0.992810
H181	H18	0.778800	0.971200	0.027700
C261	C26	0.937400	0.989090	0.979950
C271	C27	0.954000	0.986790	0.926980
H191	H19	0.045900	0.000400	0.916100
C281	C28	0.838700	0.965040	0.889970
H201	H20	0.855700	0.963400	0.855000
C291	C29	0.505500	0.197900	0.452340
C301	C30	0.633100	0.235720	0.433480
C311	C31	0.632300	0.304800	0.430770
H211	H21	0.552900	0.328400	0.443000
C321	C32	0.746600	0.339500	0.410320
H221	H22	0.741800	0.386000	0.408600
C331	C33	0.868500	0.306570	0.392240
C341	C34	0.875100	0.236700	0.397140
H231	H23	0.957600	0.213300	0.386900
C351	C35	0.759400	0.202700	0.417140
H241	H24	0.765200	0.156300	0.419900
C361	C36	0.986400	0.342990	0.367460
C371	C37	0.137900	0.345000	0.388740
H251	H25	0.168600	0.322000	0.419600
C381	C38	0.243200	0.380400	0.364860
H261	H26	0.343900	0.382400	0.380200
C391	C39	0.200600	0.413400	0.318080
H271	H27	0.273300	0.437000	0.302200
C401	C40	0.051600	0.411700	0.294790
C411	C41	0.946000	0.376820	0.320440
H281	H28	0.844600	0.376000	0.305700
C421	C42	0.006000	0.445000	0.243770
C431	C43	0.067100	0.504900	0.231700
H291	H29	0.141100	0.524500	0.255600
C441	C44	0.022300	0.537200	0.184820
H301	H30	0.065400	0.578300	0.178000
C451	C45	0.914300	0.509100	0.148140
C461	C46	0.855100	0.447900	0.159200
H311	H31	0.784300	0.427400	0.134600
C471	C47	0.899600	0.416000	0.206690
H321	H32	0.857300	0.374800	0.213600
C481	C48	0.857200	0.546400	0.099010
Cd11	Cd1	0.274350	0.120890	0.479250
N11	N1	0.582500	0.922180	0.866310
N21	N2	0.350800	0.076790	0.559500
N31	N3	0.908700	0.680570	0.983170
O11	O1	0.391300	0.227980	0.463590
O21	O2	0.517300	0.136340	0.456810
O31	O3	0.785500	0.516130	0.061940
O41	O4	0.878900	0.607490	0.098200
C491	C49	0.612800	0.513100	0.932560
H331	H33	0.618500	0.484800	0.961400
C501	C50	0.566700	0.486300	0.883820
H341	H34	0.540100	0.441400	0.880700
C511	C51	0.559900	0.525740	0.839960
C521	C52	0.598400	0.592700	0.847970
H351	H35	0.595700	0.621700	0.819600
C531	C53	0.639800	0.615600	0.897210
H361	H36	0.663300	0.660800	0.901400
C541	C54	0.515200	0.498720	0.786420
C551	C55	0.544000	0.432600	0.775000
H371	H37	0.588100	0.404500	0.801400
C561	C56	0.508400	0.407500	0.725310
H381	H38	0.527000	0.362700	0.718600
C571	C57	0.444900	0.448700	0.685230
C581	C58	0.415100	0.514600	0.696280
H391	H39	0.370900	0.542600	0.669900
C591	C59	0.450500	0.539200	0.746320
H401	H40	0.430400	0.583800	0.753200
C601	C60	0.531400	0.379100	0.616980
C611	C61	0.681900	0.398100	0.623010
H411	H41	0.710600	0.438700	0.639000
C621	C62	0.790500	0.357100	0.605390
H421	H42	0.892400	0.369900	0.610400
C631	C63	0.751000	0.297030	0.580370
C641	C64	0.601100	0.278500	0.575860
H431	H43	0.572600	0.237700	0.560400
C651	C65	0.490000	0.318700	0.593640
H441	H44	0.388600	0.305000	0.589900
C661	C66	0.868600	0.256000	0.558710
C671	C67	0.994000	0.285700	0.540460
H451	H45	0.005800	0.332000	0.542000
C681	C68	0.100800	0.246800	0.520100
H461	H46	0.183700	0.267900	0.508000
C691	C69	0.970300	0.151700	0.534530
H471	H47	0.961600	0.105400	0.532700
C701	C70	0.857900	0.187500	0.555310
H481	H48	0.775600	0.165300	0.566900
C711	C71	0.299800	0.445800	0.596520
C721	C72	0.320700	0.449500	0.544470
H491	H49	0.414700	0.438100	0.534200
C731	C73	0.203900	0.470100	0.507190
H501	H50	0.221200	0.471200	0.472300
C741	C74	0.062600	0.489090	0.520050
C751	C75	0.046000	0.486790	0.573020
H511	H51	0.954100	0.500400	0.583900
C761	C76	0.161300	0.465040	0.610030
H521	H52	0.144300	0.463400	0.645000
C771	C77	0.494500	0.697900	0.047660
C781	C78	0.366900	0.735720	0.066520
C791	C79	0.367700	0.804800	0.069230
H531	H53	0.447100	0.828400	0.057000
C801	C80	0.253400	0.839500	0.089680
H541	H54	0.258200	0.886000	0.091400
C811	C81	0.131500	0.806570	0.107760
C821	C82	0.124900	0.736700	0.102860
H551	H55	0.042400	0.713300	0.113100
C831	C83	0.240600	0.702700	0.082860
H561	H56	0.234800	0.656300	0.080100
C841	C84	0.013600	0.842990	0.132540
C851	C85	0.862100	0.845000	0.111260
H571	H57	0.831400	0.822000	0.080400
C861	C86	0.756800	0.880400	0.135140
H581	H58	0.656100	0.882400	0.119800
C871	C87	0.799400	0.913400	0.181920
H591	H59	0.726700	0.937000	0.197800
C881	C88	0.948400	0.911700	0.205210
C891	C89	0.054000	0.876820	0.179560
H601	H60	0.155400	0.876000	0.194300
C901	C90	0.994000	0.945000	0.256230
C911	C91	0.932900	0.004900	0.268300
H611	H61	0.858900	0.024500	0.244400
C921	C92	0.977700	0.037200	0.315180
H621	H62	0.934600	0.078300	0.322000
C931	C93	0.085700	0.009100	0.351860
C941	C94	0.144900	0.947900	0.340800
H631	H63	0.215700	0.927400	0.365400
C951	C95	0.100400	0.916000	0.293310
H641	H64	0.142700	0.874800	0.286400
C961	C96	0.142800	0.046400	0.400990
Cd21	Cd2	0.725650	0.620890	0.020750
N41	N4	0.417500	0.422180	0.633690
N51	N5	0.649200	0.576790	0.940500
N61	N6	0.091300	0.180570	0.516830
O51	O5	0.608700	0.727980	0.036410
O61	O6	0.482700	0.636340	0.043190
O71	O7	0.214500	0.016130	0.438060
O81	O8	0.121100	0.107490	0.401800
C971	C97	0.612800	0.986900	0.432560
H651	H65	0.618500	0.015200	0.461400
C981	C98	0.566700	0.013700	0.383820
H661	H66	0.540100	0.058600	0.380700
C991	C99	0.559900	0.974260	0.339960
C1001	C100	0.598400	0.907300	0.347970
H671	H67	0.595700	0.878300	0.319600
C1011	C101	0.639800	0.884400	0.397210
H681	H68	0.663300	0.839200	0.401400
C1021	C102	0.515200	0.001280	0.286420
C1031	C103	0.544000	0.067400	0.275000
H691	H69	0.588100	0.095500	0.301400
C1041	C104	0.508400	0.092500	0.225310
H701	H70	0.527000	0.137300	0.218600
C1051	C105	0.444900	0.051300	0.185230
C1061	C106	0.415100	0.985400	0.196280
H711	H71	0.370900	0.957400	0.169900
C1071	C107	0.450500	0.960800	0.246320
H721	H72	0.430400	0.916200	0.253200
C1081	C108	0.531400	0.120900	0.116980
C1091	C109	0.681900	0.101900	0.123010
H731	H73	0.710600	0.061300	0.139000
C1101	C110	0.790500	0.142900	0.105390
H741	H74	0.892400	0.130100	0.110400
C1111	C111	0.751000	0.202970	0.080370
C1121	C112	0.601100	0.221500	0.075860
H751	H75	0.572600	0.262300	0.060400
C1131	C113	0.490000	0.181300	0.093640
H761	H76	0.388600	0.195000	0.089900
C1141	C114	0.868600	0.244000	0.058710
C1151	C115	0.994000	0.214300	0.040460
H771	H77	0.005800	0.168000	0.042000
C1161	C116	0.100800	0.253200	0.020100
H781	H78	0.183700	0.232100	0.008000
C1171	C117	0.970300	0.348300	0.034530
H791	H79	0.961600	0.394600	0.032700
C1181	C118	0.857900	0.312500	0.055310
H801	H80	0.775600	0.334700	0.066900
C1191	C119	0.299800	0.054200	0.096520
C1201	C120	0.320700	0.050500	0.044470
H811	H81	0.414700	0.061900	0.034200
C1211	C121	0.203900	0.029900	0.007190
H821	H82	0.221200	0.028800	0.972300
C1221	C122	0.062600	0.010910	0.020050
C1231	C123	0.046000	0.013210	0.073020
H831	H83	0.954100	0.999600	0.083900
C1241	C124	0.161300	0.034960	0.110030
H841	H84	0.144300	0.036600	0.145000
C1251	C125	0.494500	0.802100	0.547660
C1261	C126	0.366900	0.764280	0.566520
C1271	C127	0.367700	0.695200	0.569230
H851	H85	0.447100	0.671600	0.557000
C1281	C128	0.253400	0.660500	0.589680
H861	H86	0.258200	0.614000	0.591400
C1291	C129	0.131500	0.693430	0.607760
C1301	C130	0.124900	0.763300	0.602860
H871	H87	0.042400	0.786700	0.613100
C1311	C131	0.240600	0.797300	0.582860
H881	H88	0.234800	0.843700	0.580100
C1321	C132	0.013600	0.657010	0.632540
C1331	C133	0.862100	0.655000	0.611260
H891	H89	0.831400	0.678000	0.580400
C1341	C134	0.756800	0.619600	0.635140
H901	H90	0.656100	0.617600	0.619800
C1351	C135	0.799400	0.586600	0.681920
H911	H91	0.726700	0.563000	0.697800
C1361	C136	0.948400	0.588300	0.705210
C1371	C137	0.054000	0.623180	0.679560
H921	H92	0.155400	0.624000	0.694300
C1381	C138	0.994000	0.555000	0.756230
C1391	C139	0.932900	0.495100	0.768300
H931	H93	0.858900	0.475500	0.744400
C1401	C140	0.977700	0.462800	0.815180
H941	H94	0.934600	0.421700	0.822000
C1411	C141	0.085700	0.490900	0.851860
C1421	C142	0.144900	0.552100	0.840800
H951	H95	0.215700	0.572600	0.865400
C1431	C143	0.100400	0.584000	0.793310
H961	H96	0.142700	0.625200	0.786400
C1441	C144	0.142800	0.453600	0.900990
Cd31	Cd3	0.725650	0.879110	0.520750
N71	N7	0.417500	0.077820	0.133690
N81	N8	0.649200	0.923210	0.440500
N91	N9	0.091300	0.319430	0.016830
O91	O9	0.608700	0.772020	0.536410
O101	O10	0.482700	0.863660	0.543190
O111	O11	0.214500	0.483870	0.938060
O121	O12	0.121100	0.392510	0.901800
C1451	C145	0.387200	0.486900	0.067440
H971	H97	0.381500	0.515200	0.038600
C1461	C146	0.433300	0.513700	0.116180
H981	H98	0.459900	0.558600	0.119300
C1471	C147	0.440100	0.474260	0.160040
C1481	C148	0.401600	0.407300	0.152030
H991	H99	0.404300	0.378300	0.180400
C1491	C149	0.360200	0.384400	0.102790
H1001	H100	0.336700	0.339200	0.098600
C1501	C150	0.484800	0.501280	0.213580
C1511	C151	0.456000	0.567400	0.225000
H1011	H101	0.411900	0.595500	0.198600
C1521	C152	0.491600	0.592500	0.274690
H1021	H102	0.473000	0.637300	0.281400
C1531	C153	0.555100	0.551300	0.314770
C1541	C154	0.584900	0.485400	0.303720
H1031	H103	0.629100	0.457400	0.330100
C1551	C155	0.549500	0.460800	0.253680
H1041	H104	0.569600	0.416200	0.246800
C1561	C156	0.468600	0.620900	0.383020
C1571	C157	0.318100	0.601900	0.376990
H1051	H105	0.289400	0.561300	0.361000
C1581	C158	0.209500	0.642900	0.394610
H1061	H106	0.107600	0.630100	0.389600
C1591	C159	0.249000	0.702970	0.419630
C1601	C160	0.398900	0.721500	0.424140
H1071	H107	0.427400	0.762300	0.439600
C1611	C161	0.510000	0.681300	0.406360
H1081	H108	0.611400	0.695000	0.410100
C1621	C162	0.131400	0.744000	0.441290
C1631	C163	0.006000	0.714300	0.459540
H1091	H109	0.994200	0.668000	0.458000
C1641	C164	0.899200	0.753200	0.479900
H1101	H110	0.816300	0.732100	0.492000
C1651	C165	0.029700	0.848300	0.465470
H1111	H111	0.038400	0.894600	0.467300
C1661	C166	0.142100	0.812500	0.444690
H1121	H112	0.224400	0.834700	0.433100
C1671	C167	0.700200	0.554200	0.403480
C1681	C168	0.679300	0.550500	0.455530
H1131	H113	0.585300	0.561900	0.465800
C1691	C169	0.796100	0.529900	0.492810
H1141	H114	0.778800	0.528800	0.527700
C1701	C170	0.937400	0.510910	0.479950
C1711	C171	0.954000	0.513210	0.426980
H1151	H115	0.045900	0.499600	0.416100
C1721	C172	0.838700	0.534960	0.389970
H1161	H116	0.855700	0.536600	0.355000
C1731	C173	0.505500	0.302100	0.952340
C1741	C174	0.633100	0.264280	0.933480
C1751	C175	0.632300	0.195200	0.930770
H1171	H117	0.552900	0.171600	0.943000
C1761	C176	0.746600	0.160500	0.910320
H1181	H118	0.741800	0.114000	0.908600
C1771	C177	0.868500	0.193430	0.892240
C1781	C178	0.875100	0.263300	0.897140
H1191	H119	0.957600	0.286700	0.886900
C1791	C179	0.759400	0.297300	0.917140
H1201	H120	0.765200	0.343700	0.919900
C1801	C180	0.986400	0.157010	0.867460
C1811	C181	0.137900	0.155000	0.888740
H1211	H121	0.168600	0.178000	0.919600
C1821	C182	0.243200	0.119600	0.864860
H1221	H122	0.343900	0.117600	0.880200
C1831	C183	0.200600	0.086600	0.818080
H1231	H123	0.273300	0.063000	0.802200
C1841	C184	0.051600	0.088300	0.794790
C1851	C185	0.946000	0.123180	0.820440
H1241	H124	0.844600	0.124000	0.805700
C1861	C186	0.006000	0.055000	0.743770
C1871	C187	0.067100	0.995100	0.731700
H1251	H125	0.141100	0.975500	0.755600
C1881	C188	0.022300	0.962800	0.684820
H1261	H126	0.065400	0.921700	0.678000
C1891	C189	0.914300	0.990900	0.648140
C1901	C190	0.855100	0.052100	0.659200
H1271	H127	0.784300	0.072600	0.634600
C1911	C191	0.899600	0.084000	0.706690
H1281	H128	0.857300	0.125200	0.713600
C1921	C192	0.857200	0.953600	0.599010
Cd41	Cd4	0.274350	0.379110	0.979250
N101	N10	0.582500	0.577820	0.366310
N111	N11	0.350800	0.423210	0.059500
N121	N12	0.908700	0.819430	0.483170
O131	O13	0.391300	0.272020	0.963590
O141	O14	0.517300	0.363660	0.956810
O151	O15	0.785500	0.983870	0.561940
O161	O16	0.878900	0.892510	0.598200
