data_XUMSOP_clean_PM
_symmetry_space_group_name_H-M	'P1'
_cell_length_a	17.764000
_cell_length_b	17.764000
_cell_length_c	15.355000
_cell_angle_alpha	90.000000
_cell_angle_beta	90.000000
_cell_angle_gamma	90.000000
_symmetry_Int_Tables_number 1

loop_
_symmetry_equiv_pos_as_xyz
'x,y,z'

loop_
_atom_site_label
_atom_site_type_symbol
_atom_site_fract_x
_atom_site_fract_y
_atom_site_fract_z
C11	C1	0.327700	0.500200	0.112500
C21	C2	0.783100	0.916800	0.436000
H11	H1	0.744800	0.899900	0.396100
H21	H2	0.766500	0.908900	0.494500
H31	H3	0.828500	0.888900	0.425700
O11	O1	0.634400	0.037500	0.407100
O21	O2	0.990800	0.910000	0.134500
Ho11	Ho1	0.971600	0.489080	0.138410
O31	O3	0.070000	0.487600	0.021700
O41	O4	0.930900	0.008700	0.383400
O51	O5	0.364000	0.493400	0.043700
C31	C3	0.995000	0.641200	0.199100
C41	C4	0.121700	0.496800	0.078300
O61	O6	0.985100	0.624000	0.121200
O71	O7	0.640000	0.008300	0.549100
C51	C5	0.989600	0.859300	0.190700
O81	O8	0.997700	0.588700	0.256500
C61	C6	0.997600	0.721700	0.229900
C71	C7	0.994000	0.777200	0.162000
O91	O9	0.357500	0.516800	0.185200
O101	O10	0.901700	0.025200	0.519300
C81	C8	0.798300	0.002000	0.420800
H41	H4	0.788200	0.015900	0.360100
C91	C9	0.881200	0.010200	0.441300
C101	C10	0.671000	0.026200	0.479100
C111	C11	0.199900	0.483900	0.052300
H51	H5	0.212300	0.501300	0.993500
C121	C12	0.752600	0.049100	0.481600
H61	H6	0.771000	0.039100	0.540600
C131	C13	0.767400	0.132500	0.462000
H71	H7	0.762200	0.141500	0.400900
H81	H8	0.817400	0.145500	0.480500
H91	H9	0.731600	0.162900	0.493400
O111	O11	0.995000	0.876300	0.269700
O121	O12	0.100300	0.490100	0.156600
C141	C14	0.246400	0.514000	0.119500
H101	H10	0.226200	0.507400	0.178300
C151	C15	0.672300	0.499800	0.612500
C161	C16	0.216900	0.083200	0.936000
H111	H11	0.255200	0.100100	0.896100
H121	H12	0.233500	0.091100	0.994500
H131	H13	0.171500	0.111100	0.925700
O131	O13	0.365600	0.962500	0.907100
O141	O14	0.009200	0.090000	0.634500
Ho21	Ho2	0.028400	0.510920	0.638410
O151	O15	0.930000	0.512400	0.521700
O161	O16	0.069100	0.991300	0.883400
O171	O17	0.636000	0.506600	0.543700
C171	C17	0.005000	0.358800	0.699100
C181	C18	0.878300	0.503200	0.578300
O181	O18	0.014900	0.376000	0.621200
O191	O19	0.360000	0.991700	0.049100
C191	C19	0.010400	0.140700	0.690700
O201	O20	0.002300	0.411300	0.756500
C201	C20	0.002400	0.278300	0.729900
C211	C21	0.006000	0.222800	0.662000
O211	O21	0.642500	0.483200	0.685200
O221	O22	0.098300	0.974800	0.019300
C221	C22	0.201700	0.998000	0.920800
H141	H14	0.211800	0.984100	0.860100
C231	C23	0.118800	0.989800	0.941300
C241	C24	0.329000	0.973800	0.979100
C251	C25	0.800100	0.516100	0.552300
H151	H15	0.787700	0.498700	0.493500
C261	C26	0.247400	0.950900	0.981600
H161	H16	0.229000	0.960900	0.040600
C271	C27	0.232600	0.867500	0.962000
H171	H17	0.237800	0.858500	0.900900
H181	H18	0.182600	0.854500	0.980500
H191	H19	0.268400	0.837100	0.993400
O231	O23	0.005000	0.123700	0.769700
O241	O24	0.899700	0.509900	0.656600
C281	C28	0.753600	0.486000	0.619500
H201	H20	0.773800	0.492600	0.678300
C291	C29	0.999800	0.827700	0.862500
C301	C30	0.583200	0.283100	0.186000
H211	H21	0.600100	0.244800	0.146100
H221	H22	0.591100	0.266500	0.244500
H231	H23	0.611100	0.328500	0.175700
O251	O25	0.462500	0.134400	0.157100
O261	O26	0.590000	0.490800	0.884500
Ho31	Ho3	0.010920	0.471600	0.888410
O271	O27	0.012400	0.570000	0.771700
O281	O28	0.491300	0.430900	0.133400
O291	O29	0.006600	0.864000	0.793700
C311	C31	0.858800	0.495000	0.949100
C321	C32	0.003200	0.621700	0.828300
O301	O30	0.876000	0.485100	0.871200
O311	O31	0.491700	0.140000	0.299100
C331	C33	0.640700	0.489600	0.940700
O321	O32	0.911300	0.497700	0.006500
C341	C34	0.778300	0.497600	0.979900
C351	C35	0.722800	0.494000	0.912000
O331	O33	0.983200	0.857500	0.935200
O341	O34	0.474800	0.401700	0.269300
C361	C36	0.498000	0.298300	0.170800
H241	H24	0.484100	0.288200	0.110100
C371	C37	0.489800	0.381200	0.191300
C381	C38	0.473800	0.171000	0.229100
C391	C39	0.016100	0.699900	0.802300
H251	H25	0.998700	0.712300	0.743500
C401	C40	0.450900	0.252600	0.231600
H261	H26	0.460900	0.271000	0.290600
C411	C41	0.367500	0.267400	0.212000
H271	H27	0.358500	0.262200	0.150900
H281	H28	0.354500	0.317400	0.230500
H291	H29	0.337100	0.231600	0.243400
O351	O35	0.623700	0.495000	0.019700
O361	O36	0.009900	0.600300	0.906600
C421	C42	0.986000	0.746400	0.869500
H301	H30	0.992600	0.726200	0.928300
C431	C43	0.000200	0.172300	0.362500
C441	C44	0.416800	0.716900	0.686000
H311	H31	0.399900	0.755200	0.646100
H321	H32	0.408900	0.733500	0.744500
H331	H33	0.388900	0.671500	0.675700
O371	O37	0.537500	0.865600	0.657100
O381	O38	0.410000	0.509200	0.384500
Ho41	Ho4	0.989080	0.528400	0.388410
O391	O39	0.987600	0.430000	0.271700
O401	O40	0.508700	0.569100	0.633400
O411	O41	0.993400	0.136000	0.293700
C451	C45	0.141200	0.505000	0.449100
C461	C46	0.996800	0.378300	0.328300
O421	O42	0.124000	0.514900	0.371200
O431	O43	0.508300	0.860000	0.799100
C471	C47	0.359300	0.510400	0.440700
O441	O44	0.088700	0.502300	0.506500
C481	C48	0.221700	0.502400	0.479900
C491	C49	0.277200	0.506000	0.412000
O451	O45	0.016800	0.142500	0.435200
O461	O46	0.525200	0.598300	0.769300
C501	C50	0.502000	0.701700	0.670800
H341	H34	0.515900	0.711800	0.610100
C511	C51	0.510200	0.618800	0.691300
C521	C52	0.526200	0.829000	0.729100
C531	C53	0.983900	0.300100	0.302300
H351	H35	0.001300	0.287700	0.243500
C541	C54	0.549100	0.747400	0.731600
H361	H36	0.539100	0.729000	0.790600
C551	C55	0.632500	0.732600	0.712000
H371	H37	0.641500	0.737800	0.650900
H381	H38	0.645500	0.682600	0.730500
H391	H39	0.662900	0.768400	0.743400
O471	O47	0.376300	0.505000	0.519700
O481	O48	0.990100	0.399700	0.406600
C561	C56	0.014000	0.253600	0.369500
H401	H40	0.007400	0.273800	0.428300
C571	C57	0.172300	0.000200	0.637500
C581	C58	0.716900	0.416800	0.314000
H411	H41	0.755200	0.399900	0.353900
H421	H42	0.733500	0.408900	0.255500
H431	H43	0.671500	0.388900	0.324300
O491	O49	0.865600	0.537500	0.342900
O501	O50	0.509200	0.410000	0.615500
Ho51	Ho5	0.528400	0.989080	0.611590
O511	O51	0.430000	0.987600	0.728300
O521	O52	0.569100	0.508700	0.366600
O531	O53	0.136000	0.993400	0.706300
C591	C59	0.505000	0.141200	0.550900
C601	C60	0.378300	0.996800	0.671700
O541	O54	0.514900	0.124000	0.628800
O551	O55	0.860000	0.508300	0.200900
C611	C61	0.510400	0.359300	0.559300
O561	O56	0.502300	0.088700	0.493500
C621	C62	0.502400	0.221700	0.520100
C631	C63	0.506000	0.277200	0.588000
O571	O57	0.142500	0.016800	0.564800
O581	O58	0.598300	0.525200	0.230700
C641	C64	0.701700	0.502000	0.329200
H441	H44	0.711800	0.515900	0.389900
C651	C65	0.618800	0.510200	0.308700
C661	C66	0.829000	0.526200	0.270900
C671	C67	0.300100	0.983900	0.697700
H451	H45	0.287700	0.001300	0.756500
C681	C68	0.747400	0.549100	0.268400
H461	H46	0.729000	0.539100	0.209400
C691	C69	0.732600	0.632500	0.288000
H471	H47	0.737800	0.641500	0.349100
H481	H48	0.682600	0.645500	0.269500
H491	H49	0.768400	0.662900	0.256600
O591	O59	0.505000	0.376300	0.480300
O601	O60	0.399700	0.990100	0.593400
C701	C70	0.253600	0.014000	0.630500
H501	H50	0.273800	0.007400	0.571700
C711	C71	0.827700	0.999800	0.137500
C721	C72	0.283100	0.583200	0.814000
H511	H51	0.244800	0.600100	0.853900
H521	H52	0.266500	0.591100	0.755500
H531	H53	0.328500	0.611100	0.824300
O611	O61	0.134400	0.462500	0.842900
O621	O62	0.490800	0.590000	0.115500
Ho61	Ho6	0.471600	0.010920	0.111590
O631	O63	0.570000	0.012400	0.228300
O641	O64	0.430900	0.491300	0.866600
O651	O65	0.864000	0.006600	0.206300
C731	C73	0.495000	0.858800	0.050900
C741	C74	0.621700	0.003200	0.171700
O661	O66	0.485100	0.876000	0.128800
O671	O67	0.140000	0.491700	0.700900
C751	C75	0.489600	0.640700	0.059300
O681	O68	0.497700	0.911300	0.993500
C761	C76	0.497600	0.778300	0.020100
C771	C77	0.494000	0.722800	0.088000
O691	O69	0.857500	0.983200	0.064800
O701	O70	0.401700	0.474800	0.730700
C781	C78	0.298300	0.498000	0.829200
H541	H54	0.288200	0.484100	0.889900
C791	C79	0.381200	0.489800	0.808700
C801	C80	0.171000	0.473800	0.770900
C811	C81	0.699900	0.016100	0.197700
H551	H55	0.712300	0.998700	0.256500
C821	C82	0.252600	0.450900	0.768400
H561	H56	0.271000	0.460900	0.709400
C831	C83	0.267400	0.367500	0.788000
H571	H57	0.262200	0.358500	0.849100
H581	H58	0.317400	0.354500	0.769500
H591	H59	0.231600	0.337100	0.756600
O711	O71	0.495000	0.623700	0.980300
O721	O72	0.600300	0.009900	0.093400
C841	C84	0.746400	0.986000	0.130500
H601	H60	0.726200	0.992600	0.071700
C851	C85	0.500200	0.327700	0.887500
C861	C86	0.916800	0.783100	0.564000
H611	H61	0.899900	0.744800	0.603900
H621	H62	0.908900	0.766500	0.505500
H631	H63	0.888900	0.828500	0.574300
O731	O73	0.037500	0.634400	0.592900
O741	O74	0.910000	0.990800	0.865500
Ho71	Ho7	0.489080	0.971600	0.861590
O751	O75	0.487600	0.070000	0.978300
O761	O76	0.008700	0.930900	0.616600
O771	O77	0.493400	0.364000	0.956300
C871	C87	0.641200	0.995000	0.800900
C881	C88	0.496800	0.121700	0.921700
O781	O78	0.624000	0.985100	0.878800
O791	O79	0.008300	0.640000	0.450900
C891	C89	0.859300	0.989600	0.809300
O801	O80	0.588700	0.997700	0.743500
C901	C90	0.721700	0.997600	0.770100
C911	C91	0.777200	0.994000	0.838000
O811	O81	0.516800	0.357500	0.814800
O821	O82	0.025200	0.901700	0.480700
C921	C92	0.002000	0.798300	0.579200
H641	H64	0.015900	0.788200	0.639900
C931	C93	0.010200	0.881200	0.558700
C941	C94	0.026200	0.671000	0.520900
C951	C95	0.483900	0.199900	0.947700
H651	H65	0.501300	0.212300	0.006500
C961	C96	0.049100	0.752600	0.518400
H661	H66	0.039100	0.771000	0.459400
C971	C97	0.132500	0.767400	0.538000
H671	H67	0.141500	0.762200	0.599100
H681	H68	0.145500	0.817400	0.519500
H691	H69	0.162900	0.731600	0.506600
O831	O83	0.876300	0.995000	0.730300
O841	O84	0.490100	0.100300	0.843400
C981	C98	0.514000	0.246400	0.880500
H701	H70	0.507400	0.226200	0.821700
C991	C99	0.499800	0.672300	0.387500
C1001	C100	0.083200	0.216900	0.064000
H711	H71	0.100100	0.255200	0.103900
H721	H72	0.091100	0.233500	0.005500
H731	H73	0.111100	0.171500	0.074300
O851	O85	0.962500	0.365600	0.092900
O861	O86	0.090000	0.009200	0.365500
Ho81	Ho8	0.510920	0.028400	0.361590
O871	O87	0.512400	0.930000	0.478300
O881	O88	0.991300	0.069100	0.116600
O891	O89	0.506600	0.636000	0.456300
C1011	C101	0.358800	0.005000	0.300900
C1021	C102	0.503200	0.878300	0.421700
O901	O90	0.376000	0.014900	0.378800
O911	O91	0.991700	0.360000	0.950900
C1031	C103	0.140700	0.010400	0.309300
O921	O92	0.411300	0.002300	0.243500
C1041	C104	0.278300	0.002400	0.270100
C1051	C105	0.222800	0.006000	0.338000
O931	O93	0.483200	0.642500	0.314800
O941	O94	0.974800	0.098300	0.980700
C1061	C106	0.998000	0.201700	0.079200
H741	H74	0.984100	0.211800	0.139900
C1071	C107	0.989800	0.118800	0.058700
C1081	C108	0.973800	0.329000	0.020900
C1091	C109	0.516100	0.800100	0.447700
H751	H75	0.498700	0.787700	0.506500
C1101	C110	0.950900	0.247400	0.018400
H761	H76	0.960900	0.229000	0.959400
C1111	C111	0.867500	0.232600	0.038000
H771	H77	0.858500	0.237800	0.099100
H781	H78	0.854500	0.182600	0.019500
H791	H79	0.837100	0.268400	0.006600
O951	O95	0.123700	0.005000	0.230300
O961	O96	0.509900	0.899700	0.343400
C1121	C112	0.486000	0.753600	0.380500
H801	H80	0.492600	0.773800	0.321700
Ho91	Ho9	0.031600	0.031600	0.500000
Ho101	Ho10	0.968400	0.968400	0.000000
Ho111	Ho11	0.468400	0.531600	0.250000
Ho121	Ho12	0.531600	0.468400	0.750000
Ho131	Ho13	0.989190	0.010810	0.250000
Ho141	Ho14	0.010810	0.989190	0.750000
Ho151	Ho15	0.489190	0.489190	0.000000
Ho161	Ho16	0.510810	0.510810	0.500000
