data_XUMTUV_clean_PM
_symmetry_space_group_name_H-M	'P1'
_cell_length_a	13.683100
_cell_length_b	13.683100
_cell_length_c	16.195500
_cell_angle_alpha	66.581500
_cell_angle_beta	66.581500
_cell_angle_gamma	74.945600
_symmetry_Int_Tables_number 1

loop_
_symmetry_equiv_pos_as_xyz
'x,y,z'

loop_
_atom_site_label
_atom_site_type_symbol
_atom_site_fract_x
_atom_site_fract_y
_atom_site_fract_z
Ho11	Ho1	0.662810	0.954560	0.997960
Ho21	Ho2	0.045440	0.337190	0.502040
Ho31	Ho3	0.337190	0.045440	0.002040
Ho41	Ho4	0.954560	0.662810	0.497960
H11	H1	0.837100	0.725700	0.244000
H21	H2	0.960000	0.418400	0.277000
H31	H3	0.843700	0.591500	0.062100
H41	H4	0.579000	0.630200	0.154000
H51	H5	0.274300	0.162900	0.256000
H61	H6	0.581600	0.040000	0.223000
H71	H7	0.408500	0.156300	0.437900
H81	H8	0.369800	0.421000	0.346000
H91	H9	0.162900	0.274300	0.756000
H101	H10	0.040000	0.581600	0.723000
H111	H11	0.156300	0.408500	0.937900
H121	H12	0.421000	0.369800	0.846000
H131	H13	0.725700	0.837100	0.744000
H141	H14	0.418400	0.960000	0.777000
H151	H15	0.591500	0.843700	0.562100
H161	H16	0.630200	0.579000	0.654000
H171	H17	0.266600	0.733400	0.250000
H181	H18	0.733400	0.266600	0.750000
C11	C1	0.449000	0.810800	0.124700
C21	C2	0.832000	0.674800	0.145100
C31	C3	0.854900	0.666500	0.223900
C41	C4	0.903800	0.571600	0.273200
C51	C5	0.928400	0.483200	0.244300
C61	C6	0.905000	0.493200	0.166500
C71	C7	0.857600	0.587400	0.115200
C81	C8	0.777800	0.776200	0.090700
C91	C9	0.929900	0.563500	0.357900
C101	C10	0.425300	0.698900	0.190400
C111	C11	0.508800	0.616800	0.191600
C121	C12	0.189200	0.551000	0.375300
C131	C13	0.325200	0.168000	0.354900
C141	C14	0.333500	0.145100	0.276100
C151	C15	0.428400	0.096200	0.226800
C161	C16	0.516800	0.071600	0.255700
C171	C17	0.506800	0.095000	0.333500
C181	C18	0.412600	0.142400	0.384800
C191	C19	0.223800	0.222200	0.409300
C201	C20	0.436500	0.070100	0.142100
C211	C21	0.301100	0.574700	0.309600
C221	C22	0.383200	0.491200	0.308400
C231	C23	0.551000	0.189200	0.875300
C241	C24	0.168000	0.325200	0.854900
C251	C25	0.145100	0.333500	0.776100
C261	C26	0.096200	0.428400	0.726800
C271	C27	0.071600	0.516800	0.755700
C281	C28	0.095000	0.506800	0.833500
C291	C29	0.142400	0.412600	0.884800
C301	C30	0.222200	0.223800	0.909300
C311	C31	0.070100	0.436500	0.642100
C321	C32	0.574700	0.301100	0.809600
C331	C33	0.491200	0.383200	0.808400
C341	C34	0.810800	0.449000	0.624700
C351	C35	0.674800	0.832000	0.645100
C361	C36	0.666500	0.854900	0.723900
C371	C37	0.571600	0.903800	0.773200
C381	C38	0.483200	0.928400	0.744300
C391	C39	0.493200	0.905000	0.666500
C401	C40	0.587400	0.857600	0.615200
C411	C41	0.776200	0.777800	0.590700
C421	C42	0.563500	0.929900	0.857900
C431	C43	0.698900	0.425300	0.690400
C441	C44	0.616800	0.508800	0.691600
C451	C45	0.322400	0.677600	0.250000
C461	C46	0.485500	0.514500	0.250000
C471	C47	0.677600	0.322400	0.750000
C481	C48	0.514500	0.485500	0.750000
N11	N1	0.927700	0.399100	0.134300
N21	N2	0.600900	0.072300	0.365700
N31	N3	0.072300	0.600900	0.865700
N41	N4	0.399100	0.927700	0.634300
N51	N5	0.574100	0.425900	0.250000
N61	N6	0.425900	0.574100	0.750000
O11	O1	0.735500	0.851300	0.125700
O21	O2	0.770800	0.780000	0.015400
O31	O3	0.546300	0.825900	0.086200
O41	O4	0.372500	0.879900	0.110600
O51	O5	0.910400	0.647000	0.378800
O61	O6	0.969800	0.474200	0.401200
O71	O7	0.959400	0.314000	0.185300
O81	O8	0.917300	0.411900	0.061100
O91	O9	0.664200	0.448600	0.202600
O101	O10	0.148700	0.264500	0.374300
O111	O11	0.220000	0.229200	0.484600
O121	O12	0.174100	0.453700	0.413800
O131	O13	0.120100	0.627500	0.389400
O141	O14	0.353000	0.089600	0.121200
O151	O15	0.525800	0.030200	0.098800
O161	O16	0.686000	0.040600	0.314700
O171	O17	0.588100	0.082700	0.438900
O181	O18	0.551400	0.335800	0.297400
O191	O19	0.264500	0.148700	0.874300
O201	O20	0.229200	0.220000	0.984600
O211	O21	0.453700	0.174100	0.913800
O221	O22	0.627500	0.120100	0.889400
O231	O23	0.089600	0.353000	0.621200
O241	O24	0.030200	0.525800	0.598800
O251	O25	0.040600	0.686000	0.814700
O261	O26	0.082700	0.588100	0.938900
O271	O27	0.335800	0.551400	0.797400
O281	O28	0.851300	0.735500	0.625700
O291	O29	0.780000	0.770800	0.515400
O301	O30	0.825900	0.546300	0.586200
O311	O31	0.879900	0.372500	0.610600
O321	O32	0.647000	0.910400	0.878800
O331	O33	0.474200	0.969800	0.901200
O341	O34	0.314000	0.959400	0.685300
O351	O35	0.411900	0.917300	0.561100
O361	O36	0.448600	0.664200	0.702600
