data_XUMVAD_clean_PM
_symmetry_space_group_name_H-M	'P1'
_cell_length_a	13.703800
_cell_length_b	13.703800
_cell_length_c	16.215600
_cell_angle_alpha	66.620300
_cell_angle_beta	66.620300
_cell_angle_gamma	74.985800
_symmetry_Int_Tables_number 1

loop_
_symmetry_equiv_pos_as_xyz
'x,y,z'

loop_
_atom_site_label
_atom_site_type_symbol
_atom_site_fract_x
_atom_site_fract_y
_atom_site_fract_z
Dy11	Dy1	0.454620	0.163010	0.497780
Dy21	Dy2	0.836990	0.545380	0.002220
Dy31	Dy3	0.545380	0.836990	0.502220
Dy41	Dy4	0.163010	0.454620	0.997780
H11	H1	0.225000	0.337800	0.744300
H21	H2	0.918500	0.460500	0.776800
H31	H3	0.090800	0.344200	0.562600
H41	H4	0.128800	0.079200	0.654300
H51	H5	0.662200	0.775000	0.755700
H61	H6	0.539500	0.081500	0.723200
H71	H7	0.655800	0.909200	0.937400
H81	H8	0.920800	0.871200	0.845700
H91	H9	0.775000	0.662200	0.255700
H101	H10	0.081500	0.539500	0.223200
H111	H11	0.909200	0.655800	0.437400
H121	H12	0.871200	0.920800	0.345700
H131	H13	0.337800	0.225000	0.244300
H141	H14	0.460500	0.918500	0.276800
H151	H15	0.344200	0.090800	0.062600
H161	H16	0.079200	0.128800	0.154300
H171	H17	0.233100	0.766900	0.750000
H181	H18	0.766900	0.233100	0.250000
C11	C1	0.276400	0.278200	0.590500
C21	C2	0.174100	0.331700	0.645200
C31	C3	0.166100	0.355300	0.724200
C41	C4	0.071200	0.404400	0.773200
C51	C5	0.982900	0.428500	0.744300
C61	C6	0.992100	0.404300	0.666700
C71	C7	0.086500	0.357700	0.615900
C81	C8	0.063600	0.429000	0.857800
C91	C9	0.310500	0.949500	0.624200
C101	C10	0.198800	0.926000	0.689900
C111	C11	0.115700	0.009100	0.691800
C121	C12	0.721800	0.723600	0.909500
C131	C13	0.668300	0.825900	0.854800
C141	C14	0.644700	0.833900	0.775800
C151	C15	0.595600	0.928800	0.726800
C161	C16	0.571500	0.017100	0.755700
C171	C17	0.595700	0.007900	0.833300
C181	C18	0.642300	0.913500	0.884100
C191	C19	0.571000	0.936400	0.642200
C201	C20	0.050500	0.689500	0.875800
C211	C21	0.074000	0.801200	0.810100
C221	C22	0.990900	0.884300	0.808200
C231	C23	0.723600	0.721800	0.409500
C241	C24	0.825900	0.668300	0.354800
C251	C25	0.833900	0.644700	0.275800
C261	C26	0.928800	0.595600	0.226800
C271	C27	0.017100	0.571500	0.255700
C281	C28	0.007900	0.595700	0.333300
C291	C29	0.913500	0.642300	0.384100
C301	C30	0.936400	0.571000	0.142200
C311	C31	0.689500	0.050500	0.375800
C321	C32	0.801200	0.074000	0.310100
C331	C33	0.884300	0.990900	0.308200
C341	C34	0.278200	0.276400	0.090500
C351	C35	0.331700	0.174100	0.145200
C361	C36	0.355300	0.166100	0.224200
C371	C37	0.404400	0.071200	0.273200
C381	C38	0.428500	0.982900	0.244300
C391	C39	0.404300	0.992100	0.166700
C401	C40	0.357700	0.086500	0.115900
C411	C41	0.429000	0.063600	0.357800
C421	C42	0.949500	0.310500	0.124200
C431	C43	0.926000	0.198800	0.189900
C441	C44	0.009100	0.115700	0.191800
C451	C45	0.177300	0.822700	0.750000
C461	C46	0.013700	0.986300	0.750000
C471	C47	0.822700	0.177300	0.250000
C481	C48	0.986300	0.013700	0.250000
N11	N1	0.899000	0.427600	0.634800
N21	N2	0.572400	0.101000	0.865200
N31	N3	0.101000	0.572400	0.365200
N41	N4	0.427600	0.899000	0.134800
N51	N5	0.925800	0.074200	0.750000
N61	N6	0.074200	0.925800	0.250000
O11	O1	0.280100	0.271700	0.514700
O21	O2	0.350900	0.237500	0.625000
O31	O3	0.146800	0.410200	0.878000
O41	O4	0.973500	0.469300	0.900900
O51	O5	0.911100	0.417300	0.561400
O61	O6	0.814000	0.458600	0.686100
O71	O7	0.325800	0.046400	0.586600
O81	O8	0.378700	0.872300	0.611200
O91	O9	0.835600	0.052000	0.797300
O101	O10	0.728300	0.719900	0.985300
O111	O11	0.762500	0.649100	0.875000
O121	O12	0.589800	0.853200	0.622000
O131	O13	0.530700	0.026500	0.599100
O141	O14	0.582700	0.088900	0.938600
O151	O15	0.541400	0.186000	0.813900
O161	O16	0.953600	0.674200	0.913400
O171	O17	0.127700	0.621300	0.888800
O181	O18	0.948000	0.164400	0.702700
O191	O19	0.719900	0.728300	0.485300
O201	O20	0.649100	0.762500	0.375000
O211	O21	0.853200	0.589800	0.122000
O221	O22	0.026500	0.530700	0.099100
O231	O23	0.088900	0.582700	0.438600
O241	O24	0.186000	0.541400	0.313900
O251	O25	0.674200	0.953600	0.413400
O261	O26	0.621300	0.127700	0.388800
O271	O27	0.164400	0.948000	0.202700
O281	O28	0.271700	0.280100	0.014700
O291	O29	0.237500	0.350900	0.125000
O301	O30	0.410200	0.146800	0.378000
O311	O31	0.469300	0.973500	0.400900
O321	O32	0.417300	0.911100	0.061400
O331	O33	0.458600	0.814000	0.186100
O341	O34	0.046400	0.325800	0.086600
O351	O35	0.872300	0.378700	0.111200
O361	O36	0.052000	0.835600	0.297300
