data_XUMVEH_clean_PM
_symmetry_space_group_name_H-M	'P1'
_cell_length_a	13.854200
_cell_length_b	13.854200
_cell_length_c	16.445000
_cell_angle_alpha	67.102200
_cell_angle_beta	67.102200
_cell_angle_gamma	75.868900
_symmetry_Int_Tables_number 1

loop_
_symmetry_equiv_pos_as_xyz
'x,y,z'

loop_
_atom_site_label
_atom_site_type_symbol
_atom_site_fract_x
_atom_site_fract_y
_atom_site_fract_z
Nd11	Nd1	0.953650	0.666260	0.499350
Nd21	Nd2	0.333740	0.046350	0.000650
Nd31	Nd3	0.046350	0.333740	0.500650
Nd41	Nd4	0.666260	0.953650	0.999350
H11	H1	0.721500	0.840100	0.742400
H21	H2	0.418000	0.953200	0.781700
H31	H3	0.582700	0.843300	0.567600
H41	H4	0.630000	0.575200	0.653600
H51	H5	0.159900	0.278500	0.757600
H61	H6	0.046800	0.582000	0.718300
H71	H7	0.156700	0.417300	0.932400
H81	H8	0.424800	0.370000	0.846400
H91	H9	0.278500	0.159900	0.257600
H101	H10	0.582000	0.046800	0.218300
H111	H11	0.417300	0.156700	0.432400
H121	H12	0.370000	0.424800	0.346400
H131	H13	0.840100	0.721500	0.242400
H141	H14	0.953200	0.418000	0.281700
H151	H15	0.843300	0.582700	0.067600
H161	H16	0.575200	0.630000	0.153600
H171	H17	0.731900	0.268100	0.750000
H181	H18	0.268100	0.731900	0.250000
C11	C1	0.668100	0.833300	0.647100
C21	C2	0.662100	0.855700	0.724400
C31	C3	0.569700	0.901100	0.775000
C41	C4	0.481300	0.923500	0.748300
C51	C5	0.488900	0.900700	0.670900
C61	C6	0.579900	0.856900	0.619600
C71	C7	0.768200	0.780600	0.592800
C81	C8	0.564100	0.926500	0.858400
C91	C9	0.698800	0.424200	0.690900
C101	C10	0.617140	0.506340	0.691600
C111	C11	0.809000	0.448200	0.625000
C121	C12	0.166700	0.331900	0.852900
C131	C13	0.144300	0.337900	0.775600
C141	C14	0.098900	0.430300	0.725000
C151	C15	0.076500	0.518700	0.751700
C161	C16	0.099300	0.511100	0.829100
C171	C17	0.143100	0.420100	0.880400
C181	C18	0.219400	0.231800	0.907200
C191	C19	0.073500	0.435900	0.641600
C201	C20	0.575800	0.301200	0.809100
C211	C21	0.493660	0.382860	0.808400
C221	C22	0.551800	0.191000	0.875000
C231	C23	0.331900	0.166700	0.352900
C241	C24	0.337900	0.144300	0.275600
C251	C25	0.430300	0.098900	0.225000
C261	C26	0.518700	0.076500	0.251700
C271	C27	0.511100	0.099300	0.329100
C281	C28	0.420100	0.143100	0.380400
C291	C29	0.231800	0.219400	0.407200
C301	C30	0.435900	0.073500	0.141600
C311	C31	0.301200	0.575800	0.309100
C321	C32	0.382860	0.493660	0.308400
C331	C33	0.191000	0.551800	0.375000
C341	C34	0.833300	0.668100	0.147100
C351	C35	0.855700	0.662100	0.224400
C361	C36	0.901100	0.569700	0.275000
C371	C37	0.923500	0.481300	0.248300
C381	C38	0.900700	0.488900	0.170900
C391	C39	0.856900	0.579900	0.119600
C401	C40	0.780600	0.768200	0.092800
C411	C41	0.926500	0.564100	0.358400
C421	C42	0.424200	0.698800	0.190900
C431	C43	0.506340	0.617140	0.191600
C441	C44	0.448200	0.809000	0.125000
C451	C45	0.677300	0.322700	0.750000
C461	C46	0.517100	0.482900	0.750000
C471	C47	0.322700	0.677300	0.250000
C481	C48	0.482900	0.517100	0.250000
N11	N1	0.394600	0.923800	0.642100
N21	N2	0.076200	0.605400	0.857900
N31	N3	0.605400	0.076200	0.357900
N41	N4	0.923800	0.394600	0.142100
N51	N5	0.430800	0.569200	0.750000
N61	N6	0.569200	0.430800	0.250000
O11	O1	0.771540	0.770580	0.519400
O21	O2	0.844830	0.748850	0.623200
O31	O3	0.647390	0.907030	0.877500
O41	O4	0.477540	0.968540	0.900500
O51	O5	0.310800	0.945800	0.696000
O61	O6	0.406800	0.919200	0.566800
O71	O7	0.874670	0.371770	0.610500
O81	O8	0.825010	0.543010	0.589100
O91	O9	0.339970	0.547370	0.793800
O101	O10	0.229420	0.228460	0.980600
O111	O11	0.251150	0.155170	0.876800
O121	O12	0.092970	0.352610	0.622500
O131	O13	0.031460	0.522460	0.599500
O141	O14	0.054200	0.689200	0.804000
O151	O15	0.080800	0.593200	0.933200
O161	O16	0.628230	0.125330	0.889500
O171	O17	0.456990	0.174990	0.910900
O181	O18	0.452630	0.660030	0.706200
O191	O19	0.228460	0.229420	0.480600
O201	O20	0.155170	0.251150	0.376800
O211	O21	0.352610	0.092970	0.122500
O221	O22	0.522460	0.031460	0.099500
O231	O23	0.689200	0.054200	0.304000
O241	O24	0.593200	0.080800	0.433200
O251	O25	0.125330	0.628230	0.389500
O261	O26	0.174990	0.456990	0.410900
O271	O27	0.660030	0.452630	0.206200
O281	O28	0.770580	0.771540	0.019400
O291	O29	0.748850	0.844830	0.123200
O301	O30	0.907030	0.647390	0.377500
O311	O31	0.968540	0.477540	0.400500
O321	O32	0.945800	0.310800	0.196000
O331	O33	0.919200	0.406800	0.066800
O341	O34	0.371770	0.874670	0.110500
O351	O35	0.543010	0.825010	0.089100
O361	O36	0.547370	0.339970	0.293800
