data_XUMVOS_clean_PM
_symmetry_space_group_name_H-M	'P1'
_cell_length_a	6.419000
_cell_length_b	7.936100
_cell_length_c	8.911000
_cell_angle_alpha	103.757000
_cell_angle_beta	104.137000
_cell_angle_gamma	106.945000
_symmetry_Int_Tables_number 1

loop_
_symmetry_equiv_pos_as_xyz
'x,y,z'

loop_
_atom_site_label
_atom_site_type_symbol
_atom_site_fract_x
_atom_site_fract_y
_atom_site_fract_z
Ba11	Ba1	0.151180	0.270660	0.427500
O11	O1	0.164700	0.578200	0.684980
O21	O2	0.198000	0.339900	0.764880
O31	O3	0.383000	0.579300	0.362470
O41	O4	0.372100	0.810200	0.263130
C11	C1	0.163100	0.489500	0.787300
C21	C2	0.108500	0.572000	0.937700
H11	H1	0.179700	0.711500	0.977300
C31	C3	0.318800	0.639300	0.246900
C41	C4	0.158000	0.496400	0.082000
H21	H2	0.207800	0.388300	0.052900
O51	O5	0.217700	0.958900	0.508260
H31	H3	0.261000	0.908000	0.435000
H41	H4	0.344000	0.015000	0.582000
Ba21	Ba2	0.848820	0.729340	0.572500
O61	O6	0.835300	0.421800	0.315020
O71	O7	0.802000	0.660100	0.235120
O81	O8	0.617000	0.420700	0.637530
O91	O9	0.627900	0.189800	0.736870
C51	C5	0.836900	0.510500	0.212700
C61	C6	0.891500	0.428000	0.062300
H51	H5	0.820300	0.288500	0.022700
C71	C7	0.681200	0.360700	0.753100
C81	C8	0.842000	0.503600	0.918000
H61	H6	0.792200	0.611700	0.947100
O101	O10	0.782300	0.041100	0.491740
H71	H7	0.739000	0.092000	0.565000
H81	H8	0.656000	0.985000	0.418000
