data_XUNGUJ_clean_PM
_symmetry_space_group_name_H-M	'P1'
_cell_length_a	5.402800
_cell_length_b	11.286200
_cell_length_c	13.917500
_cell_angle_alpha	90.000000
_cell_angle_beta	90.000000
_cell_angle_gamma	102.875000
_symmetry_Int_Tables_number 1

loop_
_symmetry_equiv_pos_as_xyz
'x,y,z'

loop_
_atom_site_label
_atom_site_type_symbol
_atom_site_fract_x
_atom_site_fract_y
_atom_site_fract_z
Li11	Li1	0.812400	0.008900	0.565800
Li21	Li2	0.687600	0.491100	0.065800
Li31	Li3	0.187600	0.991100	0.434200
Li41	Li4	0.312400	0.508900	0.934200
H11	H1	0.957400	0.724300	0.373200
H21	H2	0.394500	0.668200	0.122700
H31	H3	0.364300	0.810200	0.237600
H41	H4	0.963700	0.582900	0.255300
H51	H5	0.542600	0.775700	0.873200
H61	H6	0.105500	0.831800	0.622700
H71	H7	0.135700	0.689800	0.737600
H81	H8	0.536300	0.917100	0.755300
H91	H9	0.042600	0.275700	0.626800
H101	H10	0.605500	0.331800	0.877300
H111	H11	0.635700	0.189800	0.762400
H121	H12	0.036300	0.417100	0.744700
H131	H13	0.457400	0.224300	0.126800
H141	H14	0.894500	0.168200	0.377300
H151	H15	0.864300	0.310200	0.262400
H161	H16	0.463700	0.082900	0.244700
C11	C1	0.635900	0.874800	0.396890
C21	C2	0.658500	0.784400	0.318840
C31	C3	0.840300	0.714400	0.323200
C41	C4	0.508100	0.679300	0.173860
C51	C5	0.489100	0.765500	0.242550
C61	C6	0.842700	0.629800	0.251590
C71	C7	0.864100	0.625200	0.896890
C81	C8	0.841500	0.715600	0.818840
C91	C9	0.659700	0.785600	0.823200
C101	C10	0.991900	0.820700	0.673860
C111	C11	0.010900	0.734500	0.742550
C121	C12	0.657300	0.870200	0.751590
C131	C13	0.364100	0.125200	0.603110
C141	C14	0.341500	0.215600	0.681160
C151	C15	0.159700	0.285600	0.676800
C161	C16	0.491900	0.320700	0.826140
C171	C17	0.510900	0.234500	0.757450
C181	C18	0.157300	0.370200	0.748410
C191	C19	0.135900	0.374800	0.103110
C201	C20	0.158500	0.284400	0.181160
C211	C21	0.340300	0.214400	0.176800
C221	C22	0.008100	0.179300	0.326140
C231	C23	0.989100	0.265500	0.257450
C241	C24	0.342700	0.129800	0.248410
N11	N1	0.681600	0.611200	0.177270
N21	N2	0.818400	0.888800	0.677270
N31	N3	0.318400	0.388800	0.822730
N41	N4	0.181600	0.111200	0.322730
O11	O1	0.826000	0.913020	0.449430
O21	O2	0.427900	0.904170	0.402970
O31	O3	0.674000	0.586980	0.949430
O41	O4	0.072100	0.595830	0.902970
O51	O5	0.174000	0.086980	0.550570
O61	O6	0.572100	0.095830	0.597030
O71	O7	0.326000	0.413020	0.050570
O81	O8	0.927900	0.404170	0.097030
