data_XUNHAQ_clean_PM
_symmetry_space_group_name_H-M	'P1'
_cell_length_a	5.473300
_cell_length_b	11.730400
_cell_length_c	13.458000
_cell_angle_alpha	90.000000
_cell_angle_beta	90.000000
_cell_angle_gamma	101.166000
_symmetry_Int_Tables_number 1

loop_
_symmetry_equiv_pos_as_xyz
'x,y,z'

loop_
_atom_site_label
_atom_site_type_symbol
_atom_site_fract_x
_atom_site_fract_y
_atom_site_fract_z
Li11	Li1	0.922500	0.739700	0.016200
Li21	Li2	0.557900	0.760400	0.155600
Li31	Li3	0.077500	0.260300	0.516200
Li41	Li4	0.442100	0.239600	0.655600
H11	H1	0.391700	0.948500	0.342200
H21	H2	0.380400	0.097900	0.451800
H31	H3	0.794400	0.171200	0.322000
H41	H4	0.783900	0.022700	0.209000
H51	H5	0.904300	0.452600	0.327900
H61	H6	0.876600	0.596500	0.216200
H71	H7	0.297100	0.521300	0.465200
H81	H8	0.297300	0.669400	0.352100
H91	H9	0.608300	0.051500	0.842200
H101	H10	0.619600	0.902100	0.951800
H111	H11	0.205600	0.828800	0.822000
H121	H12	0.216100	0.977300	0.709000
H131	H13	0.095700	0.547400	0.827900
H141	H14	0.123400	0.403500	0.716200
H151	H15	0.702900	0.478700	0.965200
H161	H16	0.702700	0.330600	0.852100
C11	C1	0.098900	0.870200	0.189200
C21	C2	0.087100	0.967200	0.263200
C31	C3	0.267200	0.992000	0.336900
C41	C4	0.259300	0.082500	0.402500
C51	C5	0.914700	0.125200	0.326300
C61	C6	0.906900	0.036100	0.257600
C71	C7	0.623700	0.375200	0.484700
C81	C8	0.602400	0.469100	0.409600
C91	C9	0.777100	0.494500	0.333800
C101	C10	0.760400	0.582100	0.267400
C111	C11	0.418100	0.535600	0.415900
C121	C12	0.418800	0.624200	0.346600
C131	C13	0.901100	0.129800	0.689200
C141	C14	0.912900	0.032800	0.763200
C151	C15	0.732800	0.008000	0.836900
C161	C16	0.740700	0.917500	0.902500
C171	C17	0.085300	0.874800	0.826300
C181	C18	0.093100	0.963900	0.757600
C191	C19	0.376300	0.624800	0.984700
C201	C20	0.397600	0.530900	0.909600
C211	C21	0.222900	0.505500	0.833800
C221	C22	0.239600	0.417900	0.767400
C231	C23	0.581900	0.464400	0.915900
C241	C24	0.581200	0.375800	0.846600
N11	N1	0.085800	0.148600	0.398350
N21	N2	0.585100	0.647800	0.272550
N31	N3	0.914200	0.851400	0.898350
N41	N4	0.414900	0.352200	0.772550
O11	O1	0.909400	0.835260	0.136150
O21	O2	0.296600	0.833920	0.186270
O31	O3	0.432200	0.335010	0.535430
O41	O4	0.828300	0.346100	0.490730
O51	O5	0.090600	0.164740	0.636150
O61	O6	0.703400	0.166080	0.686270
O71	O7	0.567800	0.664990	0.035430
O81	O8	0.171700	0.653900	0.990730
