data_XUNSEG_clean_PM
_symmetry_space_group_name_H-M	'P1'
_cell_length_a	5.388100
_cell_length_b	14.117500
_cell_length_c	11.409800
_cell_angle_alpha	90.000000
_cell_angle_beta	101.187000
_cell_angle_gamma	90.000000
_symmetry_Int_Tables_number 1

loop_
_symmetry_equiv_pos_as_xyz
'x,y,z'

loop_
_atom_site_label
_atom_site_type_symbol
_atom_site_fract_x
_atom_site_fract_y
_atom_site_fract_z
O11	O1	0.841600	0.439200	0.927200
O21	O2	0.440400	0.395300	0.913600
C11	C1	0.689700	0.306600	0.806100
C21	C2	0.653600	0.386700	0.890200
N11	N1	0.722100	0.164200	0.638300
C31	C3	0.550200	0.160900	0.708300
H11	H1	0.437800	0.108400	0.700300
C41	C4	0.876500	0.308200	0.738700
H21	H2	0.999500	0.357200	0.749400
C51	C5	0.882500	0.237100	0.655000
H31	H3	0.007900	0.240600	0.606900
C61	C6	0.527200	0.229700	0.791800
H41	H4	0.400800	0.224300	0.838900
Li11	Li1	0.205200	0.436600	0.003500
O31	O3	0.658400	0.939200	0.572800
O41	O4	0.059600	0.895300	0.586400
C71	C7	0.810300	0.806600	0.693900
C81	C8	0.846400	0.886700	0.609800
N21	N2	0.777900	0.664200	0.861700
C91	C9	0.949800	0.660900	0.791700
H51	H5	0.062200	0.608400	0.799700
C101	C10	0.623500	0.808200	0.761300
H61	H6	0.500500	0.857200	0.750600
C111	C11	0.617500	0.737100	0.845000
H71	H7	0.492100	0.740600	0.893100
C121	C12	0.972800	0.729700	0.708200
H81	H8	0.099200	0.724300	0.661100
Li21	Li2	0.294800	0.936600	0.496500
O51	O5	0.158400	0.560800	0.072800
O61	O6	0.559600	0.604700	0.086400
C131	C13	0.310300	0.693400	0.193900
C141	C14	0.346400	0.613300	0.109800
N31	N3	0.277900	0.835800	0.361700
C151	C15	0.449800	0.839100	0.291700
H91	H9	0.562200	0.891600	0.299700
C161	C16	0.123500	0.691800	0.261300
H101	H10	0.000500	0.642800	0.250600
C171	C17	0.117500	0.762900	0.345000
H111	H11	0.992100	0.759400	0.393100
C181	C18	0.472800	0.770300	0.208200
H121	H12	0.599200	0.775700	0.161100
Li31	Li3	0.794800	0.563400	0.996500
O71	O7	0.341600	0.060800	0.427200
O81	O8	0.940400	0.104700	0.413600
C191	C19	0.189700	0.193400	0.306100
C201	C20	0.153600	0.113300	0.390200
N41	N4	0.222100	0.335800	0.138300
C211	C21	0.050200	0.339100	0.208300
H131	H13	0.937800	0.391600	0.200300
C221	C22	0.376500	0.191800	0.238700
H141	H14	0.499500	0.142800	0.249400
C231	C23	0.382500	0.262900	0.155000
H151	H15	0.507900	0.259400	0.106900
C241	C24	0.027200	0.270300	0.291800
H161	H16	0.900800	0.275700	0.338900
Li41	Li4	0.705200	0.063400	0.503500
