data_XUNTIL_clean_PM
_symmetry_space_group_name_H-M	'P1'
_cell_length_a	5.203800
_cell_length_b	14.516000
_cell_length_c	10.295000
_cell_angle_alpha	90.000000
_cell_angle_beta	96.140000
_cell_angle_gamma	90.000000
_symmetry_Int_Tables_number 1

loop_
_symmetry_equiv_pos_as_xyz
'x,y,z'

loop_
_atom_site_label
_atom_site_type_symbol
_atom_site_fract_x
_atom_site_fract_y
_atom_site_fract_z
O11	O1	0.387000	0.046300	0.594100
O21	O2	0.004000	0.115300	0.583900
N11	N1	0.564000	0.328000	0.870900
C11	C1	0.679000	0.247600	0.869500
H11	H1	0.833700	0.237700	0.925700
C21	C2	0.341000	0.188000	0.708600
C31	C3	0.225000	0.111300	0.624400
C41	C4	0.231000	0.270100	0.710100
H21	H2	0.079900	0.281400	0.651800
C51	C5	0.579000	0.175600	0.786800
H31	H3	0.671200	0.119300	0.783600
C61	C6	0.327000	0.341500	0.794400
H41	H4	0.234200	0.397500	0.799400
Li11	Li1	0.685000	0.434300	0.998000
O31	O3	0.613000	0.546300	0.905900
O41	O4	0.996000	0.615300	0.916100
N21	N2	0.436000	0.828000	0.629100
C71	C7	0.321000	0.747600	0.630500
H51	H5	0.166300	0.737700	0.574300
C81	C8	0.659000	0.688000	0.791400
C91	C9	0.775000	0.611300	0.875600
C101	C10	0.769000	0.770100	0.789900
H61	H6	0.920100	0.781400	0.848200
C111	C11	0.421000	0.675600	0.713200
H71	H7	0.328800	0.619300	0.716400
C121	C12	0.673000	0.841500	0.705600
H81	H8	0.765800	0.897500	0.700600
Li21	Li2	0.315000	0.934300	0.502000
O51	O5	0.613000	0.953700	0.405900
O61	O6	0.996000	0.884700	0.416100
N31	N3	0.436000	0.672000	0.129100
C131	C13	0.321000	0.752400	0.130500
H91	H9	0.166300	0.762300	0.074300
C141	C14	0.659000	0.812000	0.291400
C151	C15	0.775000	0.888700	0.375600
C161	C16	0.769000	0.729900	0.289900
H101	H10	0.920100	0.718600	0.348200
C171	C17	0.421000	0.824400	0.213200
H111	H11	0.328800	0.880700	0.216400
C181	C18	0.673000	0.658500	0.205600
H121	H12	0.765800	0.602500	0.200600
Li31	Li3	0.315000	0.565700	0.002000
O71	O7	0.387000	0.453700	0.094100
O81	O8	0.004000	0.384700	0.083900
N41	N4	0.564000	0.172000	0.370900
C191	C19	0.679000	0.252400	0.369500
H131	H13	0.833700	0.262300	0.425700
C201	C20	0.341000	0.312000	0.208600
C211	C21	0.225000	0.388700	0.124400
C221	C22	0.231000	0.229900	0.210100
H141	H14	0.079900	0.218600	0.151800
C231	C23	0.579000	0.324400	0.286800
H151	H15	0.671200	0.380700	0.283600
C241	C24	0.327000	0.158500	0.294400
H161	H16	0.234200	0.102500	0.299400
Li41	Li4	0.685000	0.065700	0.498000
