data_XUTQEI_clean_PM
_symmetry_space_group_name_H-M	'P1'
_cell_length_a	11.301500
_cell_length_b	33.521100
_cell_length_c	33.521100
_cell_angle_alpha	120.000000
_cell_angle_beta	90.000000
_cell_angle_gamma	90.000000
_symmetry_Int_Tables_number 1

loop_
_symmetry_equiv_pos_as_xyz
'x,y,z'

loop_
_atom_site_label
_atom_site_type_symbol
_atom_site_fract_x
_atom_site_fract_y
_atom_site_fract_z
Ni11	Ni1	0.993320	0.165460	0.835300
Ni21	Ni2	0.091300	0.001530	0.500730
Ni31	Ni3	0.151890	0.834340	0.669300
Ni41	Ni4	0.993320	0.669840	0.834540
Ni51	Ni5	0.091300	0.499200	0.998470
Ni61	Ni6	0.151890	0.834960	0.165660
Ni71	Ni7	0.993320	0.164700	0.330160
Ni81	Ni8	0.091300	0.499270	0.500800
Ni91	Ni9	0.151890	0.330700	0.165040
H11	H1	0.083100	0.975000	0.722200
H21	H2	0.120300	0.948100	0.590700
H31	H3	0.028500	0.076200	0.691600
H41	H4	0.033000	0.309100	0.923700
H51	H5	0.118800	0.410000	0.052500
H61	H6	0.079200	0.278600	0.025400
H71	H7	0.207900	0.234500	0.858000
H81	H8	0.408000	0.229800	0.855800
H91	H9	0.394800	0.094500	0.815800
H101	H10	0.199000	0.102700	0.817900
H111	H11	0.787100	0.210600	0.901700
H121	H12	0.584500	0.216700	0.904200
H131	H13	0.577000	0.120700	0.770100
H141	H14	0.778400	0.114500	0.767500
H151	H15	0.297300	0.044700	0.573900
H161	H16	0.496300	0.039700	0.565800
H171	H17	0.513000	0.965000	0.432400
H181	H18	0.309700	0.964800	0.432300
H191	H19	0.885100	0.039100	0.467300
H201	H20	0.679700	0.038500	0.469000
H211	H21	0.678600	0.967300	0.534800
H221	H22	0.883700	0.964000	0.533300
H231	H23	0.364600	0.885200	0.652100
H241	H24	0.567000	0.882200	0.649400
H251	H25	0.556900	0.784900	0.686100
H261	H26	0.355600	0.788900	0.689900
H271	H27	0.946800	0.897800	0.708600
H281	H28	0.747500	0.899000	0.711800
H291	H29	0.737000	0.763300	0.619600
H301	H30	0.930300	0.766700	0.619300
H311	H31	0.083100	0.747200	0.025000
H321	H32	0.120300	0.642600	0.051900
H331	H33	0.028500	0.615400	0.923800
H341	H34	0.033000	0.614600	0.690900
H351	H35	0.118800	0.642500	0.590000
H361	H36	0.079200	0.746800	0.721400
H371	H37	0.207900	0.623500	0.765500
H381	H38	0.408000	0.626000	0.770200
H391	H39	0.394800	0.721300	0.905500
H401	H40	0.199000	0.715200	0.897300
H411	H41	0.787100	0.691100	0.789400
H421	H42	0.584500	0.687500	0.783300
H431	H43	0.577000	0.649400	0.879300
H441	H44	0.778400	0.653000	0.885500
H451	H45	0.297300	0.529200	0.955300
H461	H46	0.496300	0.526100	0.960300
H471	H47	0.513000	0.467400	0.035000
H481	H48	0.309700	0.467500	0.035200
H491	H49	0.885100	0.428200	0.960900
H501	H50	0.679700	0.430500	0.961500
H511	H51	0.678600	0.567500	0.032700
H521	H52	0.883700	0.569300	0.036000
H531	H53	0.364600	0.766900	0.114800
H541	H54	0.567000	0.767200	0.117800
H551	H55	0.556900	0.901200	0.215100
H561	H56	0.355600	0.901000	0.211100
H571	H57	0.946800	0.810800	0.102200
H581	H58	0.747500	0.812800	0.101000
H591	H59	0.737000	0.856300	0.236700
H601	H60	0.930300	0.852600	0.233300
H611	H61	0.083100	0.277800	0.252800
H621	H62	0.120300	0.409300	0.357400
H631	H63	0.028500	0.308400	0.384600
H641	H64	0.033000	0.076300	0.385400
H651	H65	0.118800	0.947500	0.357500
H661	H66	0.079200	0.974600	0.253200
H671	H67	0.207900	0.142000	0.376500
H681	H68	0.408000	0.144200	0.374000
H691	H69	0.394800	0.184200	0.278700
H701	H70	0.199000	0.182100	0.284800
H711	H71	0.787100	0.098300	0.308900
H721	H72	0.584500	0.095800	0.312500
H731	H73	0.577000	0.229900	0.350600
H741	H74	0.778400	0.232500	0.347000
H751	H75	0.297300	0.426100	0.470800
H761	H76	0.496300	0.434200	0.473900
H771	H77	0.513000	0.567600	0.532600
H781	H78	0.309700	0.567700	0.532500
H791	H79	0.885100	0.532700	0.571800
H801	H80	0.679700	0.531000	0.569500
H811	H81	0.678600	0.465200	0.432500
H821	H82	0.883700	0.466700	0.430700
H831	H83	0.364600	0.347900	0.233100
H841	H84	0.567000	0.350600	0.232800
H851	H85	0.556900	0.313900	0.098800
H861	H86	0.355600	0.310100	0.099000
H871	H87	0.946800	0.291400	0.189200
H881	H88	0.747500	0.288200	0.187200
H891	H89	0.737000	0.380400	0.143700
H901	H90	0.930300	0.380700	0.147400
C11	C1	0.051700	0.030460	0.714150
C21	C2	0.080700	0.985050	0.700240
C31	C3	0.106200	0.954360	0.654250
C41	C4	0.102800	0.969080	0.622170
C51	C5	0.073800	0.014490	0.636080
C61	C6	0.048300	0.045180	0.682070
C71	C7	0.022700	0.067600	0.763400
C81	C8	0.133800	0.907700	0.644300
C91	C9	0.072400	0.029500	0.600200
C101	C10	0.052100	0.286540	0.969640
C111	C11	0.050800	0.318590	0.954870
C121	C12	0.075600	0.364600	0.985750
C131	C13	0.101800	0.378550	0.031400
C141	C14	0.103100	0.346490	0.046170
C151	C15	0.078300	0.300490	0.015290
C161	C16	0.024900	0.236200	0.933700
C171	C17	0.076900	0.401900	0.972000
C181	C18	0.128400	0.358300	0.091600
C191	C19	0.243100	0.205600	0.849400
C201	C20	0.364300	0.202700	0.848100
C211	C21	0.428200	0.162140	0.836060
C221	C22	0.360600	0.123600	0.824500
C231	C23	0.242100	0.130200	0.826500
C241	C24	0.743400	0.191800	0.874360
C251	C25	0.623100	0.195700	0.876300
C261	C26	0.559400	0.168700	0.837400
C271	C27	0.620900	0.139200	0.797500
C281	C28	0.740300	0.135400	0.795600
C291	C29	0.336100	0.028300	0.545000
C301	C30	0.454300	0.023800	0.537500
C311	C31	0.530700	0.003200	0.501400
C321	C32	0.471000	0.980700	0.460700
C331	C33	0.349900	0.981000	0.461000
C341	C34	0.843600	0.024300	0.480900
C351	C35	0.722800	0.023800	0.482400
C361	C36	0.661500	0.003040	0.501840
C371	C37	0.721800	0.981500	0.520900
C381	C38	0.842200	0.979700	0.520600
C391	C39	0.403900	0.864500	0.659200
C401	C40	0.523400	0.863000	0.657500
C411	C41	0.580700	0.832790	0.667890
C421	C42	0.517000	0.805700	0.679300
C431	C43	0.397700	0.807900	0.681200
C441	C44	0.907200	0.869500	0.689700
C451	C45	0.784800	0.870400	0.691700
C461	C46	0.712200	0.831600	0.666000
C471	C47	0.775500	0.791900	0.638400
C481	C48	0.895000	0.795600	0.639500
C491	C49	0.051700	0.683690	0.969540
C501	C50	0.080700	0.715190	0.014950
C511	C51	0.106200	0.699890	0.045640
C521	C52	0.102800	0.653090	0.030920
C531	C53	0.073800	0.621590	0.985510
C541	C54	0.048300	0.636890	0.954820
C551	C55	0.022700	0.695800	0.932400
C561	C56	0.133800	0.736600	0.092300
C571	C57	0.072400	0.570700	0.970500
C581	C58	0.052100	0.683100	0.713460
C591	C59	0.050800	0.636280	0.681410
C601	C60	0.075600	0.621150	0.635400
C611	C61	0.101800	0.652850	0.621450
C621	C62	0.103100	0.699680	0.653510
C631	C63	0.078300	0.714800	0.699510
C641	C64	0.024900	0.697500	0.763800
C651	C65	0.076900	0.570100	0.598100
C661	C66	0.128400	0.733300	0.641700
C671	C67	0.243100	0.643800	0.794400
C681	C68	0.364300	0.645400	0.797300
C691	C69	0.428200	0.673920	0.837860
C701	C70	0.360600	0.700900	0.876400
C711	C71	0.242100	0.696300	0.869800
C721	C72	0.743400	0.682560	0.808200
C731	C73	0.623100	0.680600	0.804300
C741	C74	0.559400	0.668700	0.831300
C751	C75	0.620900	0.658300	0.860800
C761	C76	0.740300	0.660200	0.864600
C771	C77	0.336100	0.516700	0.971700
C781	C78	0.454300	0.513700	0.976200
C791	C79	0.530700	0.498200	0.996800
C801	C80	0.471000	0.480000	0.019300
C811	C81	0.349900	0.480000	0.019000
C821	C82	0.843600	0.456600	0.975700
C831	C83	0.722800	0.458600	0.976200
C841	C84	0.661500	0.498800	0.996960
C851	C85	0.721800	0.539400	0.018500
C861	C86	0.842200	0.540900	0.020300
C871	C87	0.403900	0.794700	0.135500
C881	C88	0.523400	0.794500	0.137000
C891	C89	0.580700	0.835100	0.167210
C901	C90	0.517000	0.873600	0.194300
C911	C91	0.397700	0.873300	0.192100
C921	C92	0.907200	0.820200	0.130500
C931	C93	0.784800	0.821300	0.129600
C941	C94	0.712200	0.834400	0.168400
C951	C95	0.775500	0.846500	0.208100
C961	C96	0.895000	0.843900	0.204400
C971	C97	0.051700	0.285850	0.316310
C981	C98	0.080700	0.299760	0.284810
C991	C99	0.106200	0.345750	0.300110
C1001	C100	0.102800	0.377830	0.346910
C1011	C101	0.073800	0.363920	0.378410
C1021	C102	0.048300	0.317930	0.363110
C1031	C103	0.022700	0.236600	0.304200
C1041	C104	0.133800	0.355700	0.263400
C1051	C105	0.072400	0.399800	0.429300
C1061	C106	0.052100	0.030360	0.316900
C1071	C107	0.050800	0.045130	0.363720
C1081	C108	0.075600	0.014250	0.378850
C1091	C109	0.101800	0.968600	0.347150
C1101	C110	0.103100	0.953830	0.300320
C1111	C111	0.078300	0.984710	0.285200
C1121	C112	0.024900	0.066300	0.302500
C1131	C113	0.076900	0.028000	0.429900
C1141	C114	0.128400	0.908400	0.266700
C1151	C115	0.243100	0.150600	0.356200
C1161	C116	0.364300	0.151900	0.354600
C1171	C117	0.428200	0.163940	0.326080
C1181	C118	0.360600	0.175500	0.299100
C1191	C119	0.242100	0.173500	0.303700
C1201	C120	0.743400	0.125640	0.317440
C1211	C121	0.623100	0.123700	0.319400
C1221	C122	0.559400	0.162600	0.331300
C1231	C123	0.620900	0.202500	0.341700
C1241	C124	0.740300	0.204400	0.339800
C1251	C125	0.336100	0.455000	0.483300
C1261	C126	0.454300	0.462500	0.486300
C1271	C127	0.530700	0.498600	0.501800
C1281	C128	0.471000	0.539300	0.520000
C1291	C129	0.349900	0.539000	0.520000
C1301	C130	0.843600	0.519100	0.543400
C1311	C131	0.722800	0.517600	0.541400
C1321	C132	0.661500	0.498160	0.501200
C1331	C133	0.721800	0.479100	0.460600
C1341	C134	0.842200	0.479400	0.459100
C1351	C135	0.403900	0.340800	0.205300
C1361	C136	0.523400	0.342500	0.205500
C1371	C137	0.580700	0.332110	0.164900
C1381	C138	0.517000	0.320700	0.126400
C1391	C139	0.397700	0.318800	0.126700
C1401	C140	0.907200	0.310300	0.179800
C1411	C141	0.784800	0.308300	0.178700
C1421	C142	0.712200	0.334000	0.165600
C1431	C143	0.775500	0.361600	0.153500
C1441	C144	0.895000	0.360500	0.156100
N11	N1	0.168400	0.167880	0.838340
N21	N2	0.806200	0.161870	0.834520
N31	N3	0.282000	0.003940	0.501290
N41	N4	0.902200	0.001930	0.500740
N51	N5	0.334900	0.837210	0.671010
N61	N6	0.981600	0.829600	0.661690
N71	N7	0.168400	0.670460	0.832120
N81	N8	0.806200	0.672650	0.838130
N91	N9	0.282000	0.497350	0.996060
N101	N10	0.902200	0.498810	0.998070
N111	N11	0.334900	0.833800	0.162790
N121	N12	0.981600	0.832090	0.170400
N131	N13	0.168400	0.161660	0.329540
N141	N14	0.806200	0.165480	0.327350
N151	N15	0.282000	0.498710	0.502650
N161	N16	0.902200	0.499260	0.501190
N171	N17	0.334900	0.328990	0.166200
N181	N18	0.981600	0.338310	0.167910
O11	O1	0.996700	0.104080	0.776310
O21	O2	0.026700	0.051300	0.792600
O31	O3	0.138600	0.895940	0.669750
O41	O4	0.163000	0.874990	0.597460
O51	O5	0.090900	0.003320	0.562540
O61	O6	0.043400	0.071700	0.614200
O71	O7	0.026200	0.207600	0.948500
O81	O8	0.000200	0.224370	0.893990
O91	O9	0.049800	0.386100	0.926800
O101	O10	0.095500	0.438800	0.997150
O111	O11	0.154300	0.402400	0.123700
O121	O12	0.132200	0.333530	0.106900
O131	O13	0.996700	0.672230	0.895920
O141	O14	0.026700	0.741300	0.948700
O151	O15	0.138600	0.773810	0.104060
O161	O16	0.163000	0.722470	0.125010
O171	O17	0.090900	0.559220	0.996680
O181	O18	0.043400	0.542500	0.928300
O191	O19	0.026200	0.740900	0.792400
O201	O20	0.000200	0.669620	0.775630
O211	O21	0.049800	0.540700	0.613900
O221	O22	0.095500	0.558350	0.561200
O231	O23	0.154300	0.721300	0.597600
O241	O24	0.132200	0.773370	0.666470
O251	O25	0.996700	0.223690	0.327770
O261	O26	0.026700	0.207400	0.258700
O271	O27	0.138600	0.330250	0.226190
O281	O28	0.163000	0.402540	0.277530
O291	O29	0.090900	0.437460	0.440780
O301	O30	0.043400	0.385800	0.457500
O311	O31	0.026200	0.051500	0.259100
O321	O32	0.000200	0.106010	0.330380
O331	O33	0.049800	0.073200	0.459300
O341	O34	0.095500	0.002850	0.441650
O351	O35	0.154300	0.876300	0.278700
O361	O36	0.132200	0.893100	0.226630
