data_XUVQOW_clean_PM
_symmetry_space_group_name_H-M	'P1'
_cell_length_a	18.633000
_cell_length_b	20.399000
_cell_length_c	20.852000
_cell_angle_alpha	90.000000
_cell_angle_beta	90.000000
_cell_angle_gamma	90.000000
_symmetry_Int_Tables_number 1

loop_
_symmetry_equiv_pos_as_xyz
'x,y,z'

loop_
_atom_site_label
_atom_site_type_symbol
_atom_site_fract_x
_atom_site_fract_y
_atom_site_fract_z
Cd11	Cd1	0.827750	0.871960	0.386540
Cd21	Cd2	0.688510	0.163290	0.364630
Cd31	Cd3	0.755380	0.036620	0.461700
Cd41	Cd4	0.195790	0.085930	0.118560
O11	O1	0.676770	0.043460	0.372900
O21	O2	0.576600	0.098960	0.370700
O31	O3	0.164960	0.491080	0.114680
O41	O4	0.066200	0.434270	0.116000
O51	O5	0.829400	0.893270	0.263500
O61	O6	0.855000	0.798700	0.306930
O71	O7	0.709150	0.877000	0.373400
O81	O8	0.700700	0.938350	0.461290
O91	O9	0.805100	0.902100	0.027800
O101	O10	0.845300	0.818600	0.967300
O111	O11	0.679000	0.493900	0.960800
O121	O12	0.789500	0.463400	0.950900
O131	O13	0.205300	0.842900	0.447600
O141	O14	0.126200	0.894500	0.386700
H11	H1	0.097000	0.873900	0.410700
O151	O15	0.306900	0.058600	0.196000
O161	O16	0.325700	0.642400	0.255700
O171	O17	0.697900	0.683600	0.204700
O181	O18	0.613500	0.638900	0.142900
H21	H2	0.586000	0.660400	0.167700
O191	O19	0.190500	0.633200	0.187200
O201	O20	0.359600	0.713090	0.546720
O211	O21	0.352700	0.621200	0.496000
O221	O22	0.380400	0.722500	0.207400
O231	O23	0.200000	0.627600	0.084300
O241	O24	0.200000	0.018500	0.200300
C11	C1	0.554200	0.868300	0.396800
H31	H3	0.574800	0.828300	0.407600
C21	C2	0.567000	0.983900	0.381100
C31	C3	0.493300	0.986300	0.366100
H41	H4	0.472700	0.026400	0.355900
C41	C4	0.450200	0.930000	0.366200
C51	C5	0.481200	0.870400	0.382100
C61	C6	0.607900	0.046500	0.375500
C71	C7	0.441300	0.807000	0.381100
C81	C8	0.420900	0.781000	0.322400
H51	H5	0.431600	0.803100	0.284600
C91	C9	0.383600	0.720200	0.320400
C101	C10	0.367700	0.687600	0.376900
H61	H6	0.344200	0.647400	0.375700
C111	C11	0.423600	0.774100	0.437900
H71	H7	0.436500	0.791800	0.477300
C121	C12	0.097300	0.487700	0.114300
C131	C13	0.850100	0.834500	0.258600
C141	C14	0.866800	0.806700	0.195700
C151	C15	0.843100	0.837700	0.139300
H81	H8	0.816400	0.876100	0.142200
C161	C16	0.907800	0.749700	0.190000
H91	H9	0.925700	0.729600	0.226800
C171	C17	0.922200	0.722200	0.129700
C181	C18	0.897500	0.753500	0.075400
H101	H10	0.906900	0.735200	0.035400
C191	C19	0.965700	0.660100	0.125000
C201	C20	0.935500	0.599100	0.109000
C211	C21	0.979400	0.545500	0.107600
H111	H11	0.959100	0.504600	0.099700
C221	C22	0.859000	0.811400	0.079000
C231	C23	0.834600	0.847300	0.020100
C241	C24	0.804700	0.620700	0.132500
H121	H12	0.818200	0.647600	0.166500
C251	C25	0.732400	0.611800	0.119400
C261	C26	0.712100	0.572500	0.067600
H131	H13	0.663800	0.567800	0.057700
C271	C27	0.763400	0.540400	0.030700
C281	C28	0.835700	0.550700	0.044600
H141	H14	0.870300	0.530700	0.019100
C291	C29	0.372700	0.937200	0.348400
C301	C30	0.319700	0.906300	0.384600
H151	H15	0.331800	0.881800	0.420600
C311	C31	0.247300	0.912800	0.365600
C321	C32	0.229500	0.950600	0.313500
H161	H16	0.181600	0.955400	0.301800
C331	C33	0.282200	0.981400	0.278500
C341	C34	0.676400	0.914000	0.411800
C351	C35	0.353600	0.974800	0.296900
H171	H17	0.389000	0.996400	0.273700
C361	C36	0.039100	0.664800	0.135000
H181	H18	0.058900	0.705100	0.146100
C371	C37	0.083800	0.610700	0.128600
C381	C38	0.054300	0.549700	0.117400
C391	C39	0.857700	0.590400	0.095900
C401	C40	0.742700	0.496200	0.976400
C411	C41	0.190900	0.878800	0.404000
C421	C42	0.596700	0.923600	0.395900
C431	C43	0.386700	0.714900	0.435400
C441	C44	0.261500	0.023000	0.221400
C451	C45	0.362400	0.692600	0.256900
C461	C46	0.365000	0.681200	0.495700
C471	C47	0.678400	0.647300	0.159600
C481	C48	0.163200	0.622800	0.135300
Cd51	Cd5	0.672250	0.128040	0.886540
Cd61	Cd6	0.811490	0.836710	0.864630
Cd71	Cd7	0.744620	0.963380	0.961700
Cd81	Cd8	0.304210	0.914070	0.618560
O251	O25	0.823230	0.956540	0.872900
O261	O26	0.923400	0.901040	0.870700
O271	O27	0.335040	0.508920	0.614680
O281	O28	0.433800	0.565730	0.616000
O291	O29	0.670600	0.106730	0.763500
O301	O30	0.645000	0.201300	0.806930
O311	O31	0.790850	0.123000	0.873400
O321	O32	0.799300	0.061650	0.961290
O331	O33	0.694900	0.097900	0.527800
O341	O34	0.654700	0.181400	0.467300
O351	O35	0.821000	0.506100	0.460800
O361	O36	0.710500	0.536600	0.450900
O371	O37	0.294700	0.157100	0.947600
O381	O38	0.373800	0.105500	0.886700
H191	H19	0.403000	0.126100	0.910700
O391	O39	0.193100	0.941400	0.696000
O401	O40	0.174300	0.357600	0.755700
O411	O41	0.802100	0.316400	0.704700
O421	O42	0.886500	0.361100	0.642900
H201	H20	0.914000	0.339600	0.667700
O431	O43	0.309500	0.366800	0.687200
O441	O44	0.140400	0.286910	0.046720
O451	O45	0.147300	0.378800	0.996000
O461	O46	0.119600	0.277500	0.707400
O471	O47	0.300000	0.372400	0.584300
O481	O48	0.300000	0.981500	0.700300
C491	C49	0.945800	0.131700	0.896800
H211	H21	0.925200	0.171700	0.907600
C501	C50	0.933000	0.016100	0.881100
C511	C51	0.006700	0.013700	0.866100
H221	H22	0.027300	0.973600	0.855900
C521	C52	0.049800	0.070000	0.866200
C531	C53	0.018800	0.129600	0.882100
C541	C54	0.892100	0.953500	0.875500
C551	C55	0.058700	0.193000	0.881100
C561	C56	0.079100	0.219000	0.822400
H231	H23	0.068400	0.196900	0.784600
C571	C57	0.116400	0.279800	0.820400
C581	C58	0.132300	0.312400	0.876900
H241	H24	0.155800	0.352600	0.875700
C591	C59	0.076400	0.225900	0.937900
H251	H25	0.063500	0.208200	0.977300
C601	C60	0.402700	0.512300	0.614300
C611	C61	0.649900	0.165500	0.758600
C621	C62	0.633200	0.193300	0.695700
C631	C63	0.656900	0.162300	0.639300
H261	H26	0.683600	0.123900	0.642200
C641	C64	0.592200	0.250300	0.690000
H271	H27	0.574300	0.270400	0.726800
C651	C65	0.577800	0.277800	0.629700
C661	C66	0.602500	0.246500	0.575400
H281	H28	0.593100	0.264800	0.535400
C671	C67	0.534300	0.339900	0.625000
C681	C68	0.564500	0.400900	0.609000
C691	C69	0.520600	0.454500	0.607600
H291	H29	0.540900	0.495400	0.599700
C701	C70	0.641000	0.188600	0.579000
C711	C71	0.665400	0.152700	0.520100
C721	C72	0.695300	0.379300	0.632500
H301	H30	0.681800	0.352400	0.666500
C731	C73	0.767600	0.388200	0.619400
C741	C74	0.787900	0.427500	0.567600
H311	H31	0.836200	0.432200	0.557700
C751	C75	0.736600	0.459600	0.530700
C761	C76	0.664300	0.449300	0.544600
H321	H32	0.629700	0.469300	0.519100
C771	C77	0.127300	0.062800	0.848400
C781	C78	0.180300	0.093700	0.884600
H331	H33	0.168200	0.118200	0.920600
C791	C79	0.252700	0.087200	0.865600
C801	C80	0.270500	0.049400	0.813500
H341	H34	0.318400	0.044600	0.801800
C811	C81	0.217800	0.018600	0.778500
C821	C82	0.823600	0.086000	0.911800
C831	C83	0.146400	0.025200	0.796900
H351	H35	0.111000	0.003600	0.773700
C841	C84	0.460900	0.335200	0.635000
H361	H36	0.441100	0.294900	0.646100
C851	C85	0.416200	0.389300	0.628600
C861	C86	0.445700	0.450300	0.617400
C871	C87	0.642300	0.409600	0.595900
C881	C88	0.757300	0.503800	0.476400
C891	C89	0.309100	0.121200	0.904000
C901	C90	0.903300	0.076400	0.895900
C911	C91	0.113300	0.285100	0.935400
C921	C92	0.238500	0.977000	0.721400
C931	C93	0.137600	0.307400	0.756900
C941	C94	0.135000	0.318800	0.995700
C951	C95	0.821600	0.352700	0.659600
C961	C96	0.336800	0.377200	0.635300
Cd91	Cd9	0.172250	0.371960	0.113460
Cd101	Cd10	0.311490	0.663290	0.135370
Cd111	Cd11	0.244620	0.536620	0.038300
Cd121	Cd12	0.804210	0.585930	0.381440
O491	O49	0.323230	0.543460	0.127100
O501	O50	0.423400	0.598960	0.129300
O511	O51	0.835040	0.991080	0.385320
O521	O52	0.933800	0.934270	0.384000
O531	O53	0.170600	0.393270	0.236500
O541	O54	0.145000	0.298700	0.193070
O551	O55	0.290850	0.377000	0.126600
O561	O56	0.299300	0.438350	0.038710
O571	O57	0.194900	0.402100	0.472200
O581	O58	0.154700	0.318600	0.532700
O591	O59	0.321000	0.993900	0.539200
O601	O60	0.210500	0.963400	0.549100
O611	O61	0.794700	0.342900	0.052400
O621	O62	0.873800	0.394500	0.113300
H371	H37	0.903000	0.373900	0.089300
O631	O63	0.693100	0.558600	0.304000
O641	O64	0.674300	0.142400	0.244300
O651	O65	0.302100	0.183600	0.295300
O661	O66	0.386500	0.138900	0.357100
H381	H38	0.414000	0.160400	0.332300
O671	O67	0.809500	0.133200	0.312800
O681	O68	0.640400	0.213090	0.953280
O691	O69	0.647300	0.121200	0.004000
O701	O70	0.619600	0.222500	0.292600
O711	O71	0.800000	0.127600	0.415700
O721	O72	0.800000	0.518500	0.299700
C971	C97	0.445800	0.368300	0.103200
H391	H39	0.425200	0.328300	0.092400
C981	C98	0.433000	0.483900	0.118900
C991	C99	0.506700	0.486300	0.133900
H401	H40	0.527300	0.526400	0.144100
C1001	C100	0.549800	0.430000	0.133800
C1011	C101	0.518800	0.370400	0.117900
C1021	C102	0.392100	0.546500	0.124500
C1031	C103	0.558700	0.307000	0.118900
C1041	C104	0.579100	0.281000	0.177600
H411	H41	0.568400	0.303100	0.215400
C1051	C105	0.616400	0.220200	0.179600
C1061	C106	0.632300	0.187600	0.123100
H421	H42	0.655800	0.147400	0.124300
C1071	C107	0.576400	0.274100	0.062100
H431	H43	0.563500	0.291800	0.022700
C1081	C108	0.902700	0.987700	0.385700
C1091	C109	0.149900	0.334500	0.241400
C1101	C110	0.133200	0.306700	0.304300
C1111	C111	0.156900	0.337700	0.360700
H441	H44	0.183600	0.376100	0.357800
C1121	C112	0.092200	0.249700	0.310000
H451	H45	0.074300	0.229600	0.273200
C1131	C113	0.077800	0.222200	0.370300
C1141	C114	0.102500	0.253500	0.424600
H461	H46	0.093100	0.235200	0.464600
C1151	C115	0.034300	0.160100	0.375000
C1161	C116	0.064500	0.099100	0.391000
C1171	C117	0.020600	0.045500	0.392400
H471	H47	0.040900	0.004600	0.400300
C1181	C118	0.141000	0.311400	0.421000
C1191	C119	0.165400	0.347300	0.479900
C1201	C120	0.195300	0.120700	0.367500
H481	H48	0.181800	0.147600	0.333500
C1211	C121	0.267600	0.111800	0.380600
C1221	C122	0.287900	0.072500	0.432400
H491	H49	0.336200	0.067800	0.442300
C1231	C123	0.236600	0.040400	0.469300
C1241	C124	0.164300	0.050700	0.455400
H501	H50	0.129700	0.030700	0.480900
C1251	C125	0.627300	0.437200	0.151600
C1261	C126	0.680300	0.406300	0.115400
H511	H51	0.668200	0.381800	0.079400
C1271	C127	0.752700	0.412800	0.134400
C1281	C128	0.770500	0.450600	0.186500
H521	H52	0.818400	0.455400	0.198200
C1291	C129	0.717800	0.481400	0.221500
C1301	C130	0.323600	0.414000	0.088200
C1311	C131	0.646400	0.474800	0.203100
H531	H53	0.611000	0.496400	0.226300
C1321	C132	0.960900	0.164800	0.365000
H541	H54	0.941100	0.205100	0.353900
C1331	C133	0.916200	0.110700	0.371400
C1341	C134	0.945700	0.049700	0.382600
C1351	C135	0.142300	0.090400	0.404100
C1361	C136	0.257300	0.996200	0.523600
C1371	C137	0.809100	0.378800	0.096000
C1381	C138	0.403300	0.423600	0.104100
C1391	C139	0.613300	0.214900	0.064600
C1401	C140	0.738500	0.523000	0.278600
C1411	C141	0.637600	0.192600	0.243100
C1421	C142	0.635000	0.181200	0.004300
C1431	C143	0.321600	0.147300	0.340400
C1441	C144	0.836800	0.122800	0.364700
Cd131	Cd13	0.327750	0.628040	0.613460
Cd141	Cd14	0.188510	0.336710	0.635370
Cd151	Cd15	0.255380	0.463380	0.538300
Cd161	Cd16	0.695790	0.414070	0.881440
O731	O73	0.176770	0.456540	0.627100
O741	O74	0.076600	0.401040	0.629300
O751	O75	0.664960	0.008920	0.885320
O761	O76	0.566200	0.065730	0.884000
O771	O77	0.329400	0.606730	0.736500
O781	O78	0.355000	0.701300	0.693070
O791	O79	0.209150	0.623000	0.626600
O801	O80	0.200700	0.561650	0.538710
O811	O81	0.305100	0.597900	0.972200
O821	O82	0.345300	0.681400	0.032700
O831	O83	0.179000	0.006100	0.039200
O841	O84	0.289500	0.036600	0.049100
O851	O85	0.705300	0.657100	0.552400
O861	O86	0.626200	0.605500	0.613300
H551	H55	0.597000	0.626100	0.589300
O871	O87	0.806900	0.441400	0.804000
O881	O88	0.825700	0.857600	0.744300
O891	O89	0.197900	0.816400	0.795300
O901	O90	0.113500	0.861100	0.857100
H561	H56	0.086000	0.839600	0.832300
O911	O91	0.690500	0.866800	0.812800
O921	O92	0.859600	0.786910	0.453280
O931	O93	0.852700	0.878800	0.504000
O941	O94	0.880400	0.777500	0.792600
O951	O95	0.700000	0.872400	0.915700
O961	O96	0.700000	0.481500	0.799700
C1451	C145	0.054200	0.631700	0.603200
H571	H57	0.074800	0.671700	0.592400
C1461	C146	0.067000	0.516100	0.618900
C1471	C147	0.993300	0.513700	0.633900
H581	H58	0.972700	0.473600	0.644100
C1481	C148	0.950200	0.570000	0.633800
C1491	C149	0.981200	0.629600	0.617900
C1501	C150	0.107900	0.453500	0.624500
C1511	C151	0.941300	0.693000	0.618900
C1521	C152	0.920900	0.719000	0.677600
H591	H59	0.931600	0.696900	0.715400
C1531	C153	0.883600	0.779800	0.679600
C1541	C154	0.867700	0.812400	0.623100
H601	H60	0.844200	0.852600	0.624300
C1551	C155	0.923600	0.725900	0.562100
H611	H61	0.936500	0.708200	0.522700
C1561	C156	0.597300	0.012300	0.885700
C1571	C157	0.350100	0.665500	0.741400
C1581	C158	0.366800	0.693300	0.804300
C1591	C159	0.343100	0.662300	0.860700
H621	H62	0.316400	0.623900	0.857800
C1601	C160	0.407800	0.750300	0.810000
H631	H63	0.425700	0.770400	0.773200
C1611	C161	0.422200	0.777800	0.870300
C1621	C162	0.397500	0.746500	0.924600
H641	H64	0.406900	0.764800	0.964600
C1631	C163	0.465700	0.839900	0.875000
C1641	C164	0.435500	0.900900	0.891000
C1651	C165	0.479400	0.954500	0.892400
H651	H65	0.459100	0.995400	0.900300
C1661	C166	0.359000	0.688600	0.921000
C1671	C167	0.334600	0.652700	0.979900
C1681	C168	0.304700	0.879300	0.867500
H661	H66	0.318200	0.852400	0.833500
C1691	C169	0.232400	0.888200	0.880600
C1701	C170	0.212100	0.927500	0.932400
H671	H67	0.163800	0.932200	0.942300
C1711	C171	0.263400	0.959600	0.969300
C1721	C172	0.335700	0.949300	0.955400
H681	H68	0.370300	0.969300	0.980900
C1731	C173	0.872700	0.562800	0.651600
C1741	C174	0.819700	0.593700	0.615400
H691	H69	0.831800	0.618200	0.579400
C1751	C175	0.747300	0.587200	0.634400
C1761	C176	0.729500	0.549400	0.686500
H701	H70	0.681600	0.544600	0.698200
C1771	C177	0.782200	0.518600	0.721500
C1781	C178	0.176400	0.586000	0.588200
C1791	C179	0.853600	0.525200	0.703100
H711	H71	0.889000	0.503600	0.726300
C1801	C180	0.539100	0.835200	0.865000
H721	H72	0.558900	0.794900	0.853900
C1811	C181	0.583800	0.889300	0.871400
C1821	C182	0.554300	0.950300	0.882600
C1831	C183	0.357700	0.909600	0.904100
C1841	C184	0.242700	0.003800	0.023600
C1851	C185	0.690900	0.621200	0.596000
C1861	C186	0.096700	0.576400	0.604100
C1871	C187	0.886700	0.785100	0.564600
C1881	C188	0.761500	0.477000	0.778600
C1891	C189	0.862400	0.807400	0.743100
C1901	C190	0.865000	0.818800	0.504300
C1911	C191	0.178400	0.852700	0.840400
C1921	C192	0.663200	0.877200	0.864700
