data_XUWTAK_clean_PM
_symmetry_space_group_name_H-M	'P1'
_cell_length_a	10.039000
_cell_length_b	17.401000
_cell_length_c	16.503000
_cell_angle_alpha	90.000000
_cell_angle_beta	90.000000
_cell_angle_gamma	90.000000
_symmetry_Int_Tables_number 1

loop_
_symmetry_equiv_pos_as_xyz
'x,y,z'

loop_
_atom_site_label
_atom_site_type_symbol
_atom_site_fract_x
_atom_site_fract_y
_atom_site_fract_z
Ga11	Ga1	0.260700	0.579900	0.916700
Mn11	Mn1	0.803400	0.732700	0.916500
P11	P1	0.478600	0.700200	0.926500
P21	P2	0.188600	0.410700	0.906700
P31	P3	0.789900	0.611000	0.760000
O11	O1	0.429500	0.614900	0.927200
O21	O2	0.480200	0.725600	0.836400
O31	O3	0.619500	0.701100	0.960200
O41	O4	0.381900	0.752700	0.967900
O51	O5	0.292900	0.478700	0.904800
O61	O6	0.152700	0.397400	0.997200
O71	O7	0.256300	0.340900	0.870900
O81	O8	0.063600	0.432100	0.862700
O91	O9	0.635800	0.594200	0.760400
O101	O10	0.829200	0.622500	0.669600
O111	O11	0.860200	0.542600	0.794300
O121	O12	0.820200	0.684500	0.802300
Ga21	Ga2	0.760700	0.079900	0.916700
Mn21	Mn2	0.303400	0.232700	0.916500
P41	P4	0.978600	0.200200	0.926500
P51	P5	0.688600	0.910700	0.906700
P61	P6	0.289900	0.111000	0.760000
O131	O13	0.929500	0.114900	0.927200
O141	O14	0.980200	0.225600	0.836400
O151	O15	0.119500	0.201100	0.960200
O161	O16	0.881900	0.252700	0.967900
O171	O17	0.792900	0.978700	0.904800
O181	O18	0.652700	0.897400	0.997200
O191	O19	0.756300	0.840900	0.870900
O201	O20	0.563600	0.932100	0.862700
O211	O21	0.135800	0.094200	0.760400
O221	O22	0.329200	0.122500	0.669600
O231	O23	0.360200	0.042600	0.794300
O241	O24	0.320200	0.184500	0.802300
Ga31	Ga3	0.739300	0.420100	0.416700
Mn31	Mn3	0.196600	0.267300	0.416500
P71	P7	0.521400	0.299800	0.426500
P81	P8	0.811400	0.589300	0.406700
P91	P9	0.210100	0.389000	0.260000
O251	O25	0.570500	0.385100	0.427200
O261	O26	0.519800	0.274400	0.336400
O271	O27	0.380500	0.298900	0.460200
O281	O28	0.618100	0.247300	0.467900
O291	O29	0.707100	0.521300	0.404800
O301	O30	0.847300	0.602600	0.497200
O311	O31	0.743700	0.659100	0.370900
O321	O32	0.936400	0.567900	0.362700
O331	O33	0.364200	0.405800	0.260400
O341	O34	0.170800	0.377500	0.169600
O351	O35	0.139800	0.457400	0.294300
O361	O36	0.179800	0.315500	0.302300
Ga41	Ga4	0.239300	0.920100	0.416700
Mn41	Mn4	0.696600	0.767300	0.416500
P101	P10	0.021400	0.799800	0.426500
P111	P11	0.311400	0.089300	0.406700
P121	P12	0.710100	0.889000	0.260000
O371	O37	0.070500	0.885100	0.427200
O381	O38	0.019800	0.774400	0.336400
O391	O39	0.880500	0.798900	0.460200
O401	O40	0.118100	0.747300	0.467900
O411	O41	0.207100	0.021300	0.404800
O421	O42	0.347300	0.102600	0.497200
O431	O43	0.243700	0.159100	0.370900
O441	O44	0.436400	0.067900	0.362700
O451	O45	0.864200	0.905800	0.260400
O461	O46	0.670800	0.877500	0.169600
O471	O47	0.639800	0.957400	0.294300
O481	O48	0.679800	0.815500	0.302300
Ga51	Ga5	0.739300	0.579900	0.583300
Mn51	Mn5	0.196600	0.732700	0.583500
P131	P13	0.521400	0.700200	0.573500
P141	P14	0.811400	0.410700	0.593300
P151	P15	0.210100	0.611000	0.740000
O491	O49	0.570500	0.614900	0.572800
O501	O50	0.519800	0.725600	0.663600
O511	O51	0.380500	0.701100	0.539800
O521	O52	0.618100	0.752700	0.532100
O531	O53	0.707100	0.478700	0.595200
O541	O54	0.847300	0.397400	0.502800
O551	O55	0.743700	0.340900	0.629100
O561	O56	0.936400	0.432100	0.637300
O571	O57	0.364200	0.594200	0.739600
O581	O58	0.170800	0.622500	0.830400
O591	O59	0.139800	0.542600	0.705700
O601	O60	0.179800	0.684500	0.697700
Ga61	Ga6	0.239300	0.079900	0.583300
Mn61	Mn6	0.696600	0.232700	0.583500
P161	P16	0.021400	0.200200	0.573500
P171	P17	0.311400	0.910700	0.593300
P181	P18	0.710100	0.111000	0.740000
O611	O61	0.070500	0.114900	0.572800
O621	O62	0.019800	0.225600	0.663600
O631	O63	0.880500	0.201100	0.539800
O641	O64	0.118100	0.252700	0.532100
O651	O65	0.207100	0.978700	0.595200
O661	O66	0.347300	0.897400	0.502800
O671	O67	0.243700	0.840900	0.629100
O681	O68	0.436400	0.932100	0.637300
O691	O69	0.864200	0.094200	0.739600
O701	O70	0.670800	0.122500	0.830400
O711	O71	0.639800	0.042600	0.705700
O721	O72	0.679800	0.184500	0.697700
Ga71	Ga7	0.260700	0.420100	0.083300
Mn71	Mn7	0.803400	0.267300	0.083500
P191	P19	0.478600	0.299800	0.073500
P201	P20	0.188600	0.589300	0.093300
P211	P21	0.789900	0.389000	0.240000
O731	O73	0.429500	0.385100	0.072800
O741	O74	0.480200	0.274400	0.163600
O751	O75	0.619500	0.298900	0.039800
O761	O76	0.381900	0.247300	0.032100
O771	O77	0.292900	0.521300	0.095200
O781	O78	0.152700	0.602600	0.002800
O791	O79	0.256300	0.659100	0.129100
O801	O80	0.063600	0.567900	0.137300
O811	O81	0.635800	0.405800	0.239600
O821	O82	0.829200	0.377500	0.330400
O831	O83	0.860200	0.457400	0.205700
O841	O84	0.820200	0.315500	0.197700
Ga81	Ga8	0.760700	0.920100	0.083300
Mn81	Mn8	0.303400	0.767300	0.083500
P221	P22	0.978600	0.799800	0.073500
P231	P23	0.688600	0.089300	0.093300
P241	P24	0.289900	0.889000	0.240000
O851	O85	0.929500	0.885100	0.072800
O861	O86	0.980200	0.774400	0.163600
O871	O87	0.119500	0.798900	0.039800
O881	O88	0.881900	0.747300	0.032100
O891	O89	0.792900	0.021300	0.095200
O901	O90	0.652700	0.102600	0.002800
O911	O91	0.756300	0.159100	0.129100
O921	O92	0.563600	0.067900	0.137300
O931	O93	0.135800	0.905800	0.239600
O941	O94	0.329200	0.877500	0.330400
O951	O95	0.360200	0.957400	0.205700
O961	O96	0.320200	0.815500	0.197700
Ga91	Ga9	0.500000	0.659800	0.750000
Ga101	Ga10	0.000000	0.159800	0.750000
Ga111	Ga11	0.500000	0.340200	0.250000
Ga121	Ga12	0.000000	0.840200	0.250000
Mn91	Mn9	0.000000	0.464900	0.750000
Mn101	Mn10	0.500000	0.964900	0.750000
Mn111	Mn11	0.000000	0.535100	0.250000
Mn121	Mn12	0.500000	0.035100	0.250000
