data_XUYDIF_clean_PM
_symmetry_space_group_name_H-M	'P1'
_cell_length_a	9.599000
_cell_length_b	11.025000
_cell_length_c	12.571000
_cell_angle_alpha	86.328000
_cell_angle_beta	81.705000
_cell_angle_gamma	79.834000
_symmetry_Int_Tables_number 1

loop_
_symmetry_equiv_pos_as_xyz
'x,y,z'

loop_
_atom_site_label
_atom_site_type_symbol
_atom_site_fract_x
_atom_site_fract_y
_atom_site_fract_z
Cd11	Cd1	0.825710	0.487140	0.976050
Cd21	Cd2	0.675440	0.649510	0.714790
Cd31	Cd3	0.174290	0.512860	0.023950
Cd41	Cd4	0.324560	0.350490	0.285210
H11	H1	0.938200	0.260000	0.148800
H21	H2	0.914100	0.060300	0.204100
H31	H3	0.815700	0.945800	0.100400
H41	H4	0.723400	0.036700	0.949100
H51	H5	0.376500	0.419100	0.686400
H61	H6	0.268900	0.417100	0.534900
H71	H7	0.625200	0.268300	0.374400
H81	H8	0.738400	0.251200	0.525600
H91	H9	0.868600	0.065200	0.696600
H101	H10	0.852100	0.867600	0.651000
H111	H11	0.455600	0.909200	0.773300
H121	H12	0.452900	0.111400	0.816400
H131	H13	0.061800	0.740000	0.851200
H141	H14	0.085900	0.939700	0.795900
H151	H15	0.184300	0.054200	0.899600
H161	H16	0.276600	0.963300	0.050900
H171	H17	0.623500	0.580900	0.313600
H181	H18	0.731100	0.582900	0.465100
H191	H19	0.374800	0.731700	0.625600
H201	H20	0.261600	0.748800	0.474400
H211	H21	0.131400	0.934800	0.303400
H221	H22	0.147900	0.132400	0.349000
H231	H23	0.544400	0.090800	0.226700
H241	H24	0.547100	0.888600	0.183600
C11	C1	0.894700	0.214700	0.107300
C21	C2	0.881600	0.094200	0.140700
C31	C3	0.821600	0.027700	0.080800
C41	C4	0.768700	0.081100	0.990000
C51	C5	0.783200	0.199300	0.960400
C61	C6	0.734300	0.271300	0.864200
C71	C7	0.640500	0.334100	0.719900
C81	C8	0.568900	0.334800	0.622600
C91	C9	0.429100	0.385000	0.624100
C101	C10	0.365600	0.385000	0.532200
C111	C11	0.573100	0.296100	0.439100
C121	C12	0.643000	0.287900	0.529000
C131	C13	0.662300	0.108000	0.759100
C141	C14	0.782600	0.035800	0.711700
C151	C15	0.772400	0.916700	0.686600
C161	C16	0.539500	0.941800	0.757400
C171	C17	0.535700	0.063400	0.783900
C181	C18	0.105300	0.785300	0.892700
C191	C19	0.118400	0.905800	0.859300
C201	C20	0.178400	0.972300	0.919200
C211	C21	0.231300	0.918900	0.010000
C221	C22	0.216800	0.800700	0.039600
C231	C23	0.265700	0.728700	0.135800
C241	C24	0.359500	0.665900	0.280100
C251	C25	0.431100	0.665200	0.377400
C261	C26	0.570900	0.615000	0.375900
C271	C27	0.634400	0.615000	0.467800
C281	C28	0.426900	0.703900	0.560900
C291	C29	0.357000	0.712100	0.471000
C301	C30	0.337700	0.892000	0.240900
C311	C31	0.217400	0.964200	0.288300
C321	C32	0.227600	0.083300	0.313400
C331	C33	0.460500	0.058200	0.242600
C341	C34	0.464300	0.936600	0.216100
N11	N1	0.847600	0.267600	0.018400
N21	N2	0.735800	0.387400	0.849900
N31	N3	0.678000	0.428500	0.757200
N41	N4	0.672000	0.232100	0.784200
N51	N5	0.436200	0.341500	0.441000
N61	N6	0.652500	0.871200	0.712000
N71	N7	0.059200	0.439600	0.900300
N81	N8	0.102200	0.358000	0.845600
N91	N9	0.142800	0.273400	0.791400
N101	N10	0.758800	0.663100	0.881200
N111	N11	0.692100	0.744800	0.935700
N121	N12	0.628200	0.822200	0.985700
N131	N13	0.888200	0.619900	0.613500
N141	N14	0.994900	0.611500	0.639900
N151	N15	0.107500	0.608000	0.663900
N161	N16	0.550300	0.332900	0.190000
N171	N17	0.587500	0.418000	0.143900
N181	N18	0.624000	0.506400	0.099000
N191	N19	0.152400	0.732400	0.981600
N201	N20	0.264200	0.612600	0.150100
N211	N21	0.322000	0.571500	0.242800
N221	N22	0.328000	0.767900	0.215800
N231	N23	0.563800	0.658500	0.559000
N241	N24	0.347500	0.128800	0.288000
N251	N25	0.940800	0.560400	0.099700
N261	N26	0.897800	0.642000	0.154400
N271	N27	0.857200	0.726600	0.208600
N281	N28	0.241200	0.336900	0.118800
N291	N29	0.307900	0.255200	0.064300
N301	N30	0.371800	0.177800	0.014300
N311	N31	0.111800	0.380100	0.386500
N321	N32	0.005100	0.388500	0.360100
N331	N33	0.892500	0.392000	0.336100
N341	N34	0.449700	0.667100	0.810000
N351	N35	0.412500	0.582000	0.856100
N361	N36	0.376000	0.493600	0.901000
