data_XUYXAR_clean_PM
_symmetry_space_group_name_H-M	'P1'
_cell_length_a	8.208700
_cell_length_b	14.991200
_cell_length_c	21.978900
_cell_angle_alpha	90.000000
_cell_angle_beta	94.702000
_cell_angle_gamma	90.000000
_symmetry_Int_Tables_number 1

loop_
_symmetry_equiv_pos_as_xyz
'x,y,z'

loop_
_atom_site_label
_atom_site_type_symbol
_atom_site_fract_x
_atom_site_fract_y
_atom_site_fract_z
Zn11	Zn1	0.325640	0.080910	0.135060
Zn21	Zn2	0.533620	0.232760	0.242830
Zn31	Zn3	0.174360	0.580910	0.364940
Zn41	Zn4	0.966380	0.732760	0.257170
Zn51	Zn5	0.674360	0.919090	0.864940
Zn61	Zn6	0.466380	0.767240	0.757170
Zn71	Zn7	0.825640	0.419090	0.635060
Zn81	Zn8	0.033620	0.267240	0.742830
H11	H1	0.354300	0.876600	0.253900
H21	H2	0.748000	0.881300	0.414900
H31	H3	0.704700	0.006000	0.355100
H41	H4	0.875600	0.584000	0.467200
H51	H5	0.464400	0.649700	0.542300
H61	H6	0.404600	0.752300	0.466100
H71	H7	0.405000	0.382800	0.149000
H81	H8	0.387300	0.536700	0.145400
H91	H9	0.496300	0.619600	0.227900
H101	H10	0.626900	0.547900	0.310200
H111	H11	0.784800	0.471600	0.376600
H121	H12	0.913800	0.384200	0.450300
H131	H13	0.893600	0.232500	0.442100
H141	H14	0.739100	0.170400	0.361300
H151	H15	0.145700	0.376600	0.246100
H161	H16	0.752000	0.381300	0.085100
H171	H17	0.795300	0.506000	0.144900
H181	H18	0.624400	0.084000	0.032800
H191	H19	0.035600	0.149700	0.957700
H201	H20	0.095400	0.252300	0.033900
H211	H21	0.095000	0.882800	0.351000
H221	H22	0.112700	0.036700	0.354600
H231	H23	0.003700	0.119600	0.272100
H241	H24	0.873100	0.047900	0.189800
H251	H25	0.715200	0.971600	0.123400
H261	H26	0.586200	0.884200	0.049700
H271	H27	0.606400	0.732500	0.057900
H281	H28	0.760900	0.670400	0.138700
H291	H29	0.645700	0.123400	0.746100
H301	H30	0.252000	0.118700	0.585100
H311	H31	0.295300	0.994000	0.644900
H321	H32	0.124400	0.416000	0.532800
H331	H33	0.535600	0.350300	0.457700
H341	H34	0.595400	0.247700	0.533900
H351	H35	0.595000	0.617200	0.851000
H361	H36	0.612700	0.463300	0.854600
H371	H37	0.503700	0.380400	0.772100
H381	H38	0.373100	0.452100	0.689800
H391	H39	0.215200	0.528400	0.623400
H401	H40	0.086200	0.615800	0.549700
H411	H41	0.106400	0.767500	0.557900
H421	H42	0.260900	0.829600	0.638700
H431	H43	0.854300	0.623400	0.753900
H441	H44	0.248000	0.618700	0.914900
H451	H45	0.204700	0.494000	0.855100
H461	H46	0.375600	0.916000	0.967200
H471	H47	0.964400	0.850300	0.042300
H481	H48	0.904600	0.747700	0.966100
H491	H49	0.905000	0.117200	0.649000
H501	H50	0.887300	0.963300	0.645400
H511	H51	0.996300	0.880400	0.727900
H521	H52	0.126900	0.952100	0.810200
H531	H53	0.284800	0.028400	0.876600
H541	H54	0.413800	0.115800	0.950300
H551	H55	0.393600	0.267500	0.942100
H561	H56	0.239100	0.329600	0.861300
C11	C1	0.497000	0.034200	0.257150
C21	C2	0.526000	0.953900	0.297650
C31	C3	0.431300	0.878200	0.287380
C41	C4	0.447800	0.804400	0.325580
C51	C5	0.569400	0.804700	0.374430
C61	C6	0.665400	0.880700	0.383280
C71	C7	0.642100	0.955100	0.346680
C81	C8	0.328500	0.728800	0.314570
C91	C9	0.603000	0.730900	0.419450
C101	C10	0.745700	0.680200	0.420580
C111	C11	0.864300	0.688400	0.372520
C121	C12	0.780600	0.617900	0.466890
C131	C13	0.676000	0.605700	0.512400
C141	C14	0.535200	0.656900	0.511680
C151	C15	0.499500	0.718400	0.465950
C161	C16	0.715900	0.539600	0.562920
C171	C17	0.451600	0.416300	0.181500
C181	C18	0.439200	0.508500	0.179300
C191	C19	0.505000	0.557700	0.228200
C201	C20	0.582600	0.515400	0.276800
C211	C21	0.595400	0.422500	0.276200
C221	C22	0.682400	0.371300	0.325400
C231	C23	0.775600	0.409800	0.374000
C241	C24	0.852500	0.358400	0.417400
C251	C25	0.839900	0.269000	0.412700
C261	C26	0.746900	0.232200	0.364100
C271	C27	0.003000	0.534200	0.242850
C281	C28	0.974000	0.453900	0.202350
C291	C29	0.068700	0.378200	0.212620
C301	C30	0.052200	0.304400	0.174420
C311	C31	0.930600	0.304700	0.125570
C321	C32	0.834600	0.380700	0.116720
C331	C33	0.857900	0.455100	0.153320
C341	C34	0.171500	0.228800	0.185430
C351	C35	0.897000	0.230900	0.080550
C361	C36	0.754300	0.180200	0.079420
C371	C37	0.635700	0.188400	0.127480
C381	C38	0.719400	0.117900	0.033110
C391	C39	0.824000	0.105700	0.987600
C401	C40	0.964800	0.156900	0.988320
C411	C41	0.000500	0.218400	0.034050
C421	C42	0.784100	0.039600	0.937080
C431	C43	0.048400	0.916300	0.318500
C441	C44	0.060800	0.008500	0.320700
C451	C45	0.995000	0.057700	0.271800
C461	C46	0.917400	0.015400	0.223200
C471	C47	0.904600	0.922500	0.223800
C481	C48	0.817600	0.871300	0.174600
C491	C49	0.724400	0.909800	0.126000
C501	C50	0.647500	0.858400	0.082600
C511	C51	0.660100	0.769000	0.087300
C521	C52	0.753100	0.732200	0.135900
C531	C53	0.503000	0.965800	0.742850
C541	C54	0.474000	0.046100	0.702350
C551	C55	0.568700	0.121800	0.712620
C561	C56	0.552200	0.195600	0.674420
C571	C57	0.430600	0.195300	0.625570
C581	C58	0.334600	0.119300	0.616720
C591	C59	0.357900	0.044900	0.653320
C601	C60	0.671500	0.271200	0.685430
C611	C61	0.397000	0.269100	0.580550
C621	C62	0.254300	0.319800	0.579420
C631	C63	0.135700	0.311600	0.627480
C641	C64	0.219400	0.382100	0.533110
C651	C65	0.324000	0.394300	0.487600
C661	C66	0.464800	0.343100	0.488320
C671	C67	0.500500	0.281600	0.534050
C681	C68	0.284100	0.460400	0.437080
C691	C69	0.548400	0.583700	0.818500
C701	C70	0.560800	0.491500	0.820700
C711	C71	0.495000	0.442300	0.771800
C721	C72	0.417400	0.484600	0.723200
C731	C73	0.404600	0.577500	0.723800
C741	C74	0.317600	0.628700	0.674600
C751	C75	0.224400	0.590200	0.626000
C761	C76	0.147500	0.641600	0.582600
C771	C77	0.160100	0.731000	0.587300
C781	C78	0.253100	0.767800	0.635900
C791	C79	0.997000	0.465800	0.757150
C801	C80	0.026000	0.546100	0.797650
C811	C81	0.931300	0.621800	0.787380
C821	C82	0.947800	0.695600	0.825580
C831	C83	0.069400	0.695300	0.874430
C841	C84	0.165400	0.619300	0.883280
C851	C85	0.142100	0.544900	0.846680
C861	C86	0.828500	0.771200	0.814570
C871	C87	0.103000	0.769100	0.919450
C881	C88	0.245700	0.819800	0.920580
C891	C89	0.364300	0.811600	0.872520
C901	C90	0.280600	0.882100	0.966890
C911	C91	0.176000	0.894300	0.012400
C921	C92	0.035200	0.843100	0.011680
C931	C93	0.999500	0.781600	0.965950
C941	C94	0.215900	0.960400	0.062920
C951	C95	0.951600	0.083700	0.681500
C961	C96	0.939200	0.991500	0.679300
C971	C97	0.005000	0.942300	0.728200
C981	C98	0.082600	0.984600	0.776800
C991	C99	0.095400	0.077500	0.776200
C1001	C100	0.182400	0.128700	0.825400
C1011	C101	0.275600	0.090200	0.874000
C1021	C102	0.352500	0.141600	0.917400
C1031	C103	0.339900	0.231000	0.912700
C1041	C104	0.246900	0.267800	0.864100
N11	N1	0.528200	0.374500	0.228970
N21	N2	0.667900	0.282000	0.321040
N31	N3	0.971800	0.874500	0.271030
N41	N4	0.832100	0.782000	0.178960
N51	N5	0.471800	0.625500	0.771030
N61	N6	0.332100	0.718000	0.678960
N71	N7	0.028200	0.125500	0.728970
N81	N8	0.167900	0.218000	0.821040
O11	O1	0.537400	0.108070	0.279250
O21	O2	0.434100	0.018460	0.204070
O31	O3	0.350100	0.660860	0.347150
O41	O4	0.214700	0.738780	0.273250
O51	O5	0.808100	0.707830	0.319160
O61	O6	0.013600	0.675710	0.387960
O71	O7	0.831800	0.485220	0.557370
O81	O8	0.639700	0.540400	0.609090
O91	O9	0.962600	0.608070	0.220750
O101	O10	0.065900	0.518460	0.295930
O111	O11	0.149900	0.160860	0.152850
O121	O12	0.285300	0.238780	0.226750
O131	O13	0.691900	0.207830	0.180840
O141	O14	0.486400	0.175710	0.112040
O151	O15	0.668200	0.985220	0.942630
O161	O16	0.860300	0.040400	0.890910
O171	O17	0.462600	0.891930	0.720750
O181	O18	0.565900	0.981540	0.795930
O191	O19	0.649900	0.339140	0.652850
O201	O20	0.785300	0.261220	0.726750
O211	O21	0.191900	0.292170	0.680840
O221	O22	0.986400	0.324290	0.612040
O231	O23	0.168200	0.514780	0.442630
O241	O24	0.360300	0.459600	0.390910
O251	O25	0.037400	0.391930	0.779250
O261	O26	0.934100	0.481540	0.704070
O271	O27	0.850100	0.839140	0.847150
O281	O28	0.714700	0.761220	0.773250
O291	O29	0.308100	0.792170	0.819160
O301	O30	0.513600	0.824290	0.887960
O311	O31	0.331800	0.014780	0.057370
O321	O32	0.139700	0.959600	0.109090
