data_XUZXUN_clean_PM
_symmetry_space_group_name_H-M	'P1'
_cell_length_a	12.158400
_cell_length_b	12.158400
_cell_length_c	17.808200
_cell_angle_alpha	90.000000
_cell_angle_beta	90.000000
_cell_angle_gamma	90.000000
_symmetry_Int_Tables_number 1

loop_
_symmetry_equiv_pos_as_xyz
'x,y,z'

loop_
_atom_site_label
_atom_site_type_symbol
_atom_site_fract_x
_atom_site_fract_y
_atom_site_fract_z
Np11	Np1	0.396850	0.421420	0.221300
O11	O1	0.246300	0.402800	0.204800
O21	O2	0.414000	0.521800	0.098700
O31	O3	0.378800	0.623600	0.197300
O41	O4	0.488500	0.873800	0.841800
O51	O5	0.558700	0.711200	0.872100
C11	C1	0.399000	0.615200	0.128400
C21	C2	0.405200	0.716400	0.081100
C31	C3	0.445900	0.709500	0.007800
H11	H1	0.470700	0.640800	0.988900
C41	C4	0.450300	0.801800	0.962900
C51	C5	0.410300	0.901700	0.990200
H21	H2	0.408600	0.964300	0.958300
C61	C6	0.373100	0.910200	0.063400
H31	H3	0.348800	0.979000	0.082500
C71	C7	0.371800	0.817100	0.109100
H41	H4	0.347800	0.822800	0.159700
C81	C8	0.502100	0.795100	0.886400
Np21	Np2	0.103150	0.078580	0.221300
O61	O6	0.253700	0.097200	0.204800
O71	O7	0.086000	0.978200	0.098700
O81	O8	0.121200	0.876400	0.197300
O91	O9	0.011500	0.626200	0.841800
O101	O10	0.941300	0.788800	0.872100
C91	C9	0.101000	0.884800	0.128400
C101	C10	0.094800	0.783600	0.081100
C111	C11	0.054100	0.790500	0.007800
H51	H5	0.029300	0.859200	0.988900
C121	C12	0.049700	0.698200	0.962900
C131	C13	0.089700	0.598300	0.990200
H61	H6	0.091400	0.535700	0.958300
C141	C14	0.126900	0.589800	0.063400
H71	H7	0.151200	0.521000	0.082500
C151	C15	0.128200	0.682900	0.109100
H81	H8	0.152200	0.677200	0.159700
C161	C16	0.997900	0.704900	0.886400
Np31	Np3	0.578580	0.896850	0.721300
O111	O11	0.597200	0.746300	0.704800
O121	O12	0.478200	0.914000	0.598700
O131	O13	0.376400	0.878800	0.697300
O141	O14	0.126200	0.988500	0.341800
O151	O15	0.288800	0.058700	0.372100
C171	C17	0.384800	0.899000	0.628400
C181	C18	0.283600	0.905200	0.581100
C191	C19	0.290500	0.945900	0.507800
H91	H9	0.359200	0.970700	0.488900
C201	C20	0.198200	0.950300	0.462900
C211	C21	0.098300	0.910300	0.490200
H101	H10	0.035700	0.908600	0.458300
C221	C22	0.089800	0.873100	0.563400
H111	H11	0.021000	0.848800	0.582500
C231	C23	0.182900	0.871800	0.609100
H121	H12	0.177200	0.847800	0.659700
C241	C24	0.204900	0.002100	0.386400
Np41	Np4	0.921420	0.603150	0.721300
O161	O16	0.902800	0.753700	0.704800
O171	O17	0.021800	0.586000	0.598700
O181	O18	0.123600	0.621200	0.697300
O191	O19	0.373800	0.511500	0.341800
O201	O20	0.211200	0.441300	0.372100
C251	C25	0.115200	0.601000	0.628400
C261	C26	0.216400	0.594800	0.581100
C271	C27	0.209500	0.554100	0.507800
H131	H13	0.140800	0.529300	0.488900
C281	C28	0.301800	0.549700	0.462900
C291	C29	0.401700	0.589700	0.490200
H141	H14	0.464300	0.591400	0.458300
C301	C30	0.410200	0.626900	0.563400
H151	H15	0.479000	0.651200	0.582500
C311	C31	0.317100	0.628200	0.609100
H161	H16	0.322800	0.652200	0.659700
C321	C32	0.295100	0.497900	0.386400
Np51	Np5	0.603150	0.578580	0.778700
O211	O21	0.753700	0.597200	0.795200
O221	O22	0.586000	0.478200	0.901300
O231	O23	0.621200	0.376400	0.802700
O241	O24	0.511500	0.126200	0.158200
O251	O25	0.441300	0.288800	0.127900
C331	C33	0.601000	0.384800	0.871600
C341	C34	0.594800	0.283600	0.918900
C351	C35	0.554100	0.290500	0.992200
H171	H17	0.529300	0.359200	0.011100
C361	C36	0.549700	0.198200	0.037100
C371	C37	0.589700	0.098300	0.009800
H181	H18	0.591400	0.035700	0.041700
C381	C38	0.626900	0.089800	0.936600
H191	H19	0.651200	0.021000	0.917500
C391	C39	0.628200	0.182900	0.890900
H201	H20	0.652200	0.177200	0.840300
C401	C40	0.497900	0.204900	0.113600
Np61	Np6	0.896850	0.921420	0.778700
O261	O26	0.746300	0.902800	0.795200
O271	O27	0.914000	0.021800	0.901300
O281	O28	0.878800	0.123600	0.802700
O291	O29	0.988500	0.373800	0.158200
O301	O30	0.058700	0.211200	0.127900
C411	C41	0.899000	0.115200	0.871600
C421	C42	0.905200	0.216400	0.918900
C431	C43	0.945900	0.209500	0.992200
H211	H21	0.970700	0.140800	0.011100
C441	C44	0.950300	0.301800	0.037100
C451	C45	0.910300	0.401700	0.009800
H221	H22	0.908600	0.464300	0.041700
C461	C46	0.873100	0.410200	0.936600
H231	H23	0.848800	0.479000	0.917500
C471	C47	0.871800	0.317100	0.890900
H241	H24	0.847800	0.322800	0.840300
C481	C48	0.002100	0.295100	0.113600
Np71	Np7	0.421420	0.103150	0.278700
O311	O31	0.402800	0.253700	0.295200
O321	O32	0.521800	0.086000	0.401300
O331	O33	0.623600	0.121200	0.302700
O341	O34	0.873800	0.011500	0.658200
O351	O35	0.711200	0.941300	0.627900
C491	C49	0.615200	0.101000	0.371600
C501	C50	0.716400	0.094800	0.418900
C511	C51	0.709500	0.054100	0.492200
H251	H25	0.640800	0.029300	0.511100
C521	C52	0.801800	0.049700	0.537100
C531	C53	0.901700	0.089700	0.509800
H261	H26	0.964300	0.091400	0.541700
C541	C54	0.910200	0.126900	0.436600
H271	H27	0.979000	0.151200	0.417500
C551	C55	0.817100	0.128200	0.390900
H281	H28	0.822800	0.152200	0.340300
C561	C56	0.795100	0.997900	0.613600
Np81	Np8	0.078580	0.396850	0.278700
O361	O36	0.097200	0.246300	0.295200
O371	O37	0.978200	0.414000	0.401300
O381	O38	0.876400	0.378800	0.302700
O391	O39	0.626200	0.488500	0.658200
O401	O40	0.788800	0.558700	0.627900
C571	C57	0.884800	0.399000	0.371600
C581	C58	0.783600	0.405200	0.418900
C591	C59	0.790500	0.445900	0.492200
H291	H29	0.859200	0.470700	0.511100
C601	C60	0.698200	0.450300	0.537100
C611	C61	0.598300	0.410300	0.509800
H301	H30	0.535700	0.408600	0.541700
C621	C62	0.589800	0.373100	0.436600
H311	H31	0.521000	0.348800	0.417500
C631	C63	0.682900	0.371800	0.390900
H321	H32	0.677200	0.347800	0.340300
C641	C64	0.704900	0.502100	0.613600
