data_YABHER_clean_PM
_symmetry_space_group_name_H-M	'P1'
_cell_length_a	18.757000
_cell_length_b	18.757000
_cell_length_c	36.092000
_cell_angle_alpha	90.000000
_cell_angle_beta	90.000000
_cell_angle_gamma	90.000000
_symmetry_Int_Tables_number 1

loop_
_symmetry_equiv_pos_as_xyz
'x,y,z'

loop_
_atom_site_label
_atom_site_type_symbol
_atom_site_fract_x
_atom_site_fract_y
_atom_site_fract_z
O11	O1	0.296160	0.803050	0.205310
O21	O2	0.353050	0.750310	0.253390
O31	O3	0.615300	0.719820	0.244860
O41	O4	0.669780	0.772530	0.196380
C11	C1	0.482730	0.764270	0.216480
H11	H1	0.484900	0.758000	0.242600
C21	C2	0.417420	0.775880	0.199310
C31	C3	0.414190	0.785020	0.161130
H21	H2	0.369600	0.793000	0.149400
C41	C4	0.476250	0.782550	0.140120
C51	C5	0.541550	0.770940	0.157300
H31	H3	0.584000	0.769300	0.142900
C61	C6	0.544790	0.761800	0.195480
C71	C7	0.350350	0.778480	0.221160
C81	C8	0.615170	0.752150	0.213570
C91	C9	0.472100	0.782010	0.098290
C101	C10	0.464600	0.846330	0.079570
C111	C11	0.462100	0.847240	0.041080
H41	H4	0.456900	0.891200	0.028300
C121	C12	0.467100	0.783800	0.021320
C131	C13	0.474700	0.719530	0.040040
H51	H5	0.478200	0.676200	0.026500
C141	C14	0.477200	0.718610	0.078530
C151	C15	0.445400	0.918300	0.100450
H61	H6	0.448900	0.910900	0.127300
H71	H7	0.396700	0.932600	0.094100
H81	H8	0.478700	0.955800	0.092900
C161	C16	0.498900	0.650800	0.098840
H91	H9	0.501000	0.611100	0.081200
H101	H10	0.463800	0.640100	0.118200
H111	H11	0.545900	0.657600	0.110200
O51	O5	0.703840	0.196950	0.205310
O61	O6	0.646950	0.249690	0.253390
O71	O7	0.384700	0.280180	0.244860
O81	O8	0.330220	0.227470	0.196380
C171	C17	0.517270	0.235730	0.216480
H121	H12	0.515100	0.242000	0.242600
C181	C18	0.582580	0.224120	0.199310
C191	C19	0.585810	0.214980	0.161130
H131	H13	0.630400	0.207000	0.149400
C201	C20	0.523750	0.217450	0.140120
C211	C21	0.458450	0.229060	0.157300
H141	H14	0.416000	0.230700	0.142900
C221	C22	0.455210	0.238200	0.195480
C231	C23	0.649650	0.221520	0.221160
C241	C24	0.384830	0.247850	0.213570
C251	C25	0.527900	0.217990	0.098290
C261	C26	0.535400	0.153670	0.079570
C271	C27	0.537900	0.152760	0.041080
H151	H15	0.543100	0.108800	0.028300
C281	C28	0.532900	0.216200	0.021320
C291	C29	0.525300	0.280470	0.040040
H161	H16	0.521800	0.323800	0.026500
C301	C30	0.522800	0.281390	0.078530
C311	C31	0.554600	0.081700	0.100450
H171	H17	0.551100	0.089100	0.127300
H181	H18	0.603300	0.067400	0.094100
H191	H19	0.521300	0.044200	0.092900
C321	C32	0.501100	0.349200	0.098840
H201	H20	0.499000	0.388900	0.081200
H211	H21	0.536200	0.359900	0.118200
H221	H22	0.454100	0.342400	0.110200
O91	O9	0.696950	0.796160	0.705310
O101	O10	0.749690	0.853050	0.753390
O111	O11	0.780180	0.115300	0.744860
O121	O12	0.727470	0.169780	0.696380
C331	C33	0.735730	0.982730	0.716480
H231	H23	0.742000	0.984900	0.742600
C341	C34	0.724120	0.917420	0.699310
C351	C35	0.714980	0.914190	0.661130
H241	H24	0.707000	0.869600	0.649400
C361	C36	0.717450	0.976250	0.640120
C371	C37	0.729060	0.041550	0.657300
H251	H25	0.730700	0.084000	0.642900
C381	C38	0.738200	0.044790	0.695480
C391	C39	0.721520	0.850350	0.721160
C401	C40	0.747850	0.115170	0.713570
C411	C41	0.717990	0.972100	0.598290
C421	C42	0.653670	0.964600	0.579570
C431	C43	0.652760	0.962100	0.541080
H261	H26	0.608800	0.956900	0.528300
C441	C44	0.716200	0.967100	0.521320
C451	C45	0.780470	0.974700	0.540040
H271	H27	0.823800	0.978200	0.526500
C461	C46	0.781390	0.977200	0.578530
C471	C47	0.581700	0.945400	0.600450
H281	H28	0.589100	0.948900	0.627300
H291	H29	0.567400	0.896700	0.594100
H301	H30	0.544200	0.978700	0.592900
C481	C48	0.849200	0.998900	0.598840
H311	H31	0.888900	0.001000	0.581200
H321	H32	0.859900	0.963800	0.618200
H331	H33	0.842400	0.045900	0.610200
O131	O13	0.303050	0.203840	0.705310
O141	O14	0.250310	0.146950	0.753390
O151	O15	0.219820	0.884700	0.744860
O161	O16	0.272530	0.830220	0.696380
C491	C49	0.264270	0.017270	0.716480
H341	H34	0.258000	0.015100	0.742600
C501	C50	0.275880	0.082580	0.699310
C511	C51	0.285020	0.085810	0.661130
H351	H35	0.293000	0.130400	0.649400
C521	C52	0.282550	0.023750	0.640120
C531	C53	0.270940	0.958450	0.657300
H361	H36	0.269300	0.916000	0.642900
C541	C54	0.261800	0.955210	0.695480
C551	C55	0.278480	0.149650	0.721160
C561	C56	0.252150	0.884830	0.713570
C571	C57	0.282010	0.027900	0.598290
C581	C58	0.346330	0.035400	0.579570
C591	C59	0.347240	0.037900	0.541080
H371	H37	0.391200	0.043100	0.528300
C601	C60	0.283800	0.032900	0.521320
C611	C61	0.219530	0.025300	0.540040
H381	H38	0.176200	0.021800	0.526500
C621	C62	0.218610	0.022800	0.578530
C631	C63	0.418300	0.054600	0.600450
H391	H39	0.410900	0.051100	0.627300
H401	H40	0.432600	0.103300	0.594100
H411	H41	0.455800	0.021300	0.592900
C641	C64	0.150800	0.001100	0.598840
H421	H42	0.111100	0.999000	0.581200
H431	H43	0.140100	0.036200	0.618200
H441	H44	0.157600	0.954100	0.610200
O171	O17	0.203840	0.303050	0.294690
O181	O18	0.146950	0.250310	0.246610
O191	O19	0.884700	0.219820	0.255140
O201	O20	0.830220	0.272530	0.303620
C651	C65	0.017270	0.264270	0.283520
H451	H45	0.015100	0.258000	0.257400
C661	C66	0.082580	0.275880	0.300690
C671	C67	0.085810	0.285020	0.338870
H461	H46	0.130400	0.293000	0.350600
C681	C68	0.023750	0.282550	0.359880
C691	C69	0.958450	0.270940	0.342700
H471	H47	0.916000	0.269300	0.357100
C701	C70	0.955210	0.261800	0.304520
C711	C71	0.149650	0.278480	0.278840
C721	C72	0.884830	0.252150	0.286430
C731	C73	0.027900	0.282010	0.401710
C741	C74	0.035400	0.346330	0.420430
C751	C75	0.037900	0.347240	0.458920
H481	H48	0.043100	0.391200	0.471700
C761	C76	0.032900	0.283800	0.478680
C771	C77	0.025300	0.219530	0.459960
H491	H49	0.021800	0.176200	0.473500
C781	C78	0.022800	0.218610	0.421470
C791	C79	0.054600	0.418300	0.399550
H501	H50	0.051100	0.410900	0.372700
H511	H51	0.103300	0.432600	0.405900
H521	H52	0.021300	0.455800	0.407100
C801	C80	0.001100	0.150800	0.401160
H531	H53	0.999000	0.111100	0.418800
H541	H54	0.036200	0.140100	0.381800
H551	H55	0.954100	0.157600	0.389800
O211	O21	0.796160	0.696950	0.294690
O221	O22	0.853050	0.749690	0.246610
O231	O23	0.115300	0.780180	0.255140
O241	O24	0.169780	0.727470	0.303620
C811	C81	0.982730	0.735730	0.283520
H561	H56	0.984900	0.742000	0.257400
C821	C82	0.917420	0.724120	0.300690
C831	C83	0.914190	0.714980	0.338870
H571	H57	0.869600	0.707000	0.350600
C841	C84	0.976250	0.717450	0.359880
C851	C85	0.041550	0.729060	0.342700
H581	H58	0.084000	0.730700	0.357100
C861	C86	0.044790	0.738200	0.304520
C871	C87	0.850350	0.721520	0.278840
C881	C88	0.115170	0.747850	0.286430
C891	C89	0.972100	0.717990	0.401710
C901	C90	0.964600	0.653670	0.420430
C911	C91	0.962100	0.652760	0.458920
H591	H59	0.956900	0.608800	0.471700
C921	C92	0.967100	0.716200	0.478680
C931	C93	0.974700	0.780470	0.459960
H601	H60	0.978200	0.823800	0.473500
C941	C94	0.977200	0.781390	0.421470
C951	C95	0.945400	0.581700	0.399550
H611	H61	0.948900	0.589100	0.372700
H621	H62	0.896700	0.567400	0.405900
H631	H63	0.978700	0.544200	0.407100
C961	C96	0.998900	0.849200	0.401160
H641	H64	0.001000	0.888900	0.418800
H651	H65	0.963800	0.859900	0.381800
H661	H66	0.045900	0.842400	0.389800
O251	O25	0.803050	0.296160	0.794690
O261	O26	0.750310	0.353050	0.746610
O271	O27	0.719820	0.615300	0.755140
O281	O28	0.772530	0.669780	0.803620
C971	C97	0.764270	0.482730	0.783520
H671	H67	0.758000	0.484900	0.757400
C981	C98	0.775880	0.417420	0.800690
C991	C99	0.785020	0.414190	0.838870
H681	H68	0.793000	0.369600	0.850600
C1001	C100	0.782550	0.476250	0.859880
C1011	C101	0.770940	0.541550	0.842700
H691	H69	0.769300	0.584000	0.857100
C1021	C102	0.761800	0.544790	0.804520
C1031	C103	0.778480	0.350350	0.778840
C1041	C104	0.752150	0.615170	0.786430
C1051	C105	0.782010	0.472100	0.901710
C1061	C106	0.846330	0.464600	0.920430
C1071	C107	0.847240	0.462100	0.958920
H701	H70	0.891200	0.456900	0.971700
C1081	C108	0.783800	0.467100	0.978680
C1091	C109	0.719530	0.474700	0.959960
H711	H71	0.676200	0.478200	0.973500
C1101	C110	0.718610	0.477200	0.921470
C1111	C111	0.918300	0.445400	0.899550
H721	H72	0.910900	0.448900	0.872700
H731	H73	0.932600	0.396700	0.905900
H741	H74	0.955800	0.478700	0.907100
C1121	C112	0.650800	0.498900	0.901160
H751	H75	0.611100	0.501000	0.918800
H761	H76	0.640100	0.463800	0.881800
H771	H77	0.657600	0.545900	0.889800
O291	O29	0.196950	0.703840	0.794690
O301	O30	0.249690	0.646950	0.746610
O311	O31	0.280180	0.384700	0.755140
O321	O32	0.227470	0.330220	0.803620
C1131	C113	0.235730	0.517270	0.783520
H781	H78	0.242000	0.515100	0.757400
C1141	C114	0.224120	0.582580	0.800690
C1151	C115	0.214980	0.585810	0.838870
H791	H79	0.207000	0.630400	0.850600
C1161	C116	0.217450	0.523750	0.859880
C1171	C117	0.229060	0.458450	0.842700
H801	H80	0.230700	0.416000	0.857100
C1181	C118	0.238200	0.455210	0.804520
C1191	C119	0.221520	0.649650	0.778840
C1201	C120	0.247850	0.384830	0.786430
C1211	C121	0.217990	0.527900	0.901710
C1221	C122	0.153670	0.535400	0.920430
C1231	C123	0.152760	0.537900	0.958920
H811	H81	0.108800	0.543100	0.971700
C1241	C124	0.216200	0.532900	0.978680
C1251	C125	0.280470	0.525300	0.959960
H821	H82	0.323800	0.521800	0.973500
C1261	C126	0.281390	0.522800	0.921470
C1271	C127	0.081700	0.554600	0.899550
H831	H83	0.089100	0.551100	0.872700
H841	H84	0.067400	0.603300	0.905900
H851	H85	0.044200	0.521300	0.907100
C1281	C128	0.349200	0.501100	0.901160
H861	H86	0.388900	0.499000	0.918800
H871	H87	0.359900	0.536200	0.881800
H881	H88	0.342400	0.454100	0.889800
O331	O33	0.703840	0.196950	0.794690
O341	O34	0.646950	0.249690	0.746610
O351	O35	0.384700	0.280180	0.755140
O361	O36	0.330220	0.227470	0.803620
C1291	C129	0.517270	0.235730	0.783520
H891	H89	0.515100	0.242000	0.757400
C1301	C130	0.582580	0.224120	0.800690
C1311	C131	0.585810	0.214980	0.838870
H901	H90	0.630400	0.207000	0.850600
C1321	C132	0.523750	0.217450	0.859880
C1331	C133	0.458450	0.229060	0.842700
H911	H91	0.416000	0.230700	0.857100
C1341	C134	0.455210	0.238200	0.804520
C1351	C135	0.649650	0.221520	0.778840
C1361	C136	0.384830	0.247850	0.786430
C1371	C137	0.527900	0.217990	0.901710
C1381	C138	0.535400	0.153670	0.920430
C1391	C139	0.537900	0.152760	0.958920
H921	H92	0.543100	0.108800	0.971700
C1401	C140	0.532900	0.216200	0.978680
C1411	C141	0.525300	0.280470	0.959960
H931	H93	0.521800	0.323800	0.973500
C1421	C142	0.522800	0.281390	0.921470
C1431	C143	0.554600	0.081700	0.899550
H941	H94	0.551100	0.089100	0.872700
H951	H95	0.603300	0.067400	0.905900
H961	H96	0.521300	0.044200	0.907100
C1441	C144	0.501100	0.349200	0.901160
H971	H97	0.499000	0.388900	0.918800
H981	H98	0.536200	0.359900	0.881800
H991	H99	0.454100	0.342400	0.889800
O371	O37	0.296160	0.803050	0.794690
O381	O38	0.353050	0.750310	0.746610
O391	O39	0.615300	0.719820	0.755140
O401	O40	0.669780	0.772530	0.803620
C1451	C145	0.482730	0.764270	0.783520
H1001	H100	0.484900	0.758000	0.757400
C1461	C146	0.417420	0.775880	0.800690
C1471	C147	0.414190	0.785020	0.838870
H1011	H101	0.369600	0.793000	0.850600
C1481	C148	0.476250	0.782550	0.859880
C1491	C149	0.541550	0.770940	0.842700
H1021	H102	0.584000	0.769300	0.857100
C1501	C150	0.544790	0.761800	0.804520
C1511	C151	0.350350	0.778480	0.778840
C1521	C152	0.615170	0.752150	0.786430
C1531	C153	0.472100	0.782010	0.901710
C1541	C154	0.464600	0.846330	0.920430
C1551	C155	0.462100	0.847240	0.958920
H1031	H103	0.456900	0.891200	0.971700
C1561	C156	0.467100	0.783800	0.978680
C1571	C157	0.474700	0.719530	0.959960
H1041	H104	0.478200	0.676200	0.973500
C1581	C158	0.477200	0.718610	0.921470
C1591	C159	0.445400	0.918300	0.899550
H1051	H105	0.448900	0.910900	0.872700
H1061	H106	0.396700	0.932600	0.905900
H1071	H107	0.478700	0.955800	0.907100
C1601	C160	0.498900	0.650800	0.901160
H1081	H108	0.501000	0.611100	0.918800
H1091	H109	0.463800	0.640100	0.881800
H1101	H110	0.545900	0.657600	0.889800
O411	O41	0.303050	0.203840	0.294690
O421	O42	0.250310	0.146950	0.246610
O431	O43	0.219820	0.884700	0.255140
O441	O44	0.272530	0.830220	0.303620
C1611	C161	0.264270	0.017270	0.283520
H1111	H111	0.258000	0.015100	0.257400
C1621	C162	0.275880	0.082580	0.300690
C1631	C163	0.285020	0.085810	0.338870
H1121	H112	0.293000	0.130400	0.350600
C1641	C164	0.282550	0.023750	0.359880
C1651	C165	0.270940	0.958450	0.342700
H1131	H113	0.269300	0.916000	0.357100
C1661	C166	0.261800	0.955210	0.304520
C1671	C167	0.278480	0.149650	0.278840
C1681	C168	0.252150	0.884830	0.286430
C1691	C169	0.282010	0.027900	0.401710
C1701	C170	0.346330	0.035400	0.420430
C1711	C171	0.347240	0.037900	0.458920
H1141	H114	0.391200	0.043100	0.471700
C1721	C172	0.283800	0.032900	0.478680
C1731	C173	0.219530	0.025300	0.459960
H1151	H115	0.176200	0.021800	0.473500
C1741	C174	0.218610	0.022800	0.421470
C1751	C175	0.418300	0.054600	0.399550
H1161	H116	0.410900	0.051100	0.372700
H1171	H117	0.432600	0.103300	0.405900
H1181	H118	0.455800	0.021300	0.407100
C1761	C176	0.150800	0.001100	0.401160
H1191	H119	0.111100	0.999000	0.418800
H1201	H120	0.140100	0.036200	0.381800
H1211	H121	0.157600	0.954100	0.389800
O451	O45	0.696950	0.796160	0.294690
O461	O46	0.749690	0.853050	0.246610
O471	O47	0.780180	0.115300	0.255140
O481	O48	0.727470	0.169780	0.303620
C1771	C177	0.735730	0.982730	0.283520
H1221	H122	0.742000	0.984900	0.257400
C1781	C178	0.724120	0.917420	0.300690
C1791	C179	0.714980	0.914190	0.338870
H1231	H123	0.707000	0.869600	0.350600
C1801	C180	0.717450	0.976250	0.359880
C1811	C181	0.729060	0.041550	0.342700
H1241	H124	0.730700	0.084000	0.357100
C1821	C182	0.738200	0.044790	0.304520
C1831	C183	0.721520	0.850350	0.278840
C1841	C184	0.747850	0.115170	0.286430
C1851	C185	0.717990	0.972100	0.401710
C1861	C186	0.653670	0.964600	0.420430
C1871	C187	0.652760	0.962100	0.458920
H1251	H125	0.608800	0.956900	0.471700
C1881	C188	0.716200	0.967100	0.478680
C1891	C189	0.780470	0.974700	0.459960
H1261	H126	0.823800	0.978200	0.473500
C1901	C190	0.781390	0.977200	0.421470
C1911	C191	0.581700	0.945400	0.399550
H1271	H127	0.589100	0.948900	0.372700
H1281	H128	0.567400	0.896700	0.405900
H1291	H129	0.544200	0.978700	0.407100
C1921	C192	0.849200	0.998900	0.401160
H1301	H130	0.888900	0.001000	0.418800
H1311	H131	0.859900	0.963800	0.381800
H1321	H132	0.842400	0.045900	0.389800
O491	O49	0.796160	0.696950	0.705310
O501	O50	0.853050	0.749690	0.753390
O511	O51	0.115300	0.780180	0.744860
O521	O52	0.169780	0.727470	0.696380
C1931	C193	0.982730	0.735730	0.716480
H1331	H133	0.984900	0.742000	0.742600
C1941	C194	0.917420	0.724120	0.699310
C1951	C195	0.914190	0.714980	0.661130
H1341	H134	0.869600	0.707000	0.649400
C1961	C196	0.976250	0.717450	0.640120
C1971	C197	0.041550	0.729060	0.657300
H1351	H135	0.084000	0.730700	0.642900
C1981	C198	0.044790	0.738200	0.695480
C1991	C199	0.850350	0.721520	0.721160
C2001	C200	0.115170	0.747850	0.713570
C2011	C201	0.972100	0.717990	0.598290
C2021	C202	0.964600	0.653670	0.579570
C2031	C203	0.962100	0.652760	0.541080
H1361	H136	0.956900	0.608800	0.528300
C2041	C204	0.967100	0.716200	0.521320
C2051	C205	0.974700	0.780470	0.540040
H1371	H137	0.978200	0.823800	0.526500
C2061	C206	0.977200	0.781390	0.578530
C2071	C207	0.945400	0.581700	0.600450
H1381	H138	0.948900	0.589100	0.627300
H1391	H139	0.896700	0.567400	0.594100
H1401	H140	0.978700	0.544200	0.592900
C2081	C208	0.998900	0.849200	0.598840
H1411	H141	0.001000	0.888900	0.581200
H1421	H142	0.963800	0.859900	0.618200
H1431	H143	0.045900	0.842400	0.610200
O531	O53	0.203840	0.303050	0.705310
O541	O54	0.146950	0.250310	0.753390
O551	O55	0.884700	0.219820	0.744860
O561	O56	0.830220	0.272530	0.696380
C2091	C209	0.017270	0.264270	0.716480
H1441	H144	0.015100	0.258000	0.742600
C2101	C210	0.082580	0.275880	0.699310
C2111	C211	0.085810	0.285020	0.661130
H1451	H145	0.130400	0.293000	0.649400
C2121	C212	0.023750	0.282550	0.640120
C2131	C213	0.958450	0.270940	0.657300
H1461	H146	0.916000	0.269300	0.642900
C2141	C214	0.955210	0.261800	0.695480
C2151	C215	0.149650	0.278480	0.721160
C2161	C216	0.884830	0.252150	0.713570
C2171	C217	0.027900	0.282010	0.598290
C2181	C218	0.035400	0.346330	0.579570
C2191	C219	0.037900	0.347240	0.541080
H1471	H147	0.043100	0.391200	0.528300
C2201	C220	0.032900	0.283800	0.521320
C2211	C221	0.025300	0.219530	0.540040
H1481	H148	0.021800	0.176200	0.526500
C2221	C222	0.022800	0.218610	0.578530
C2231	C223	0.054600	0.418300	0.600450
H1491	H149	0.051100	0.410900	0.627300
H1501	H150	0.103300	0.432600	0.594100
H1511	H151	0.021300	0.455800	0.592900
C2241	C224	0.001100	0.150800	0.598840
H1521	H152	0.999000	0.111100	0.581200
H1531	H153	0.036200	0.140100	0.618200
H1541	H154	0.954100	0.157600	0.610200
O571	O57	0.196950	0.703840	0.205310
O581	O58	0.249690	0.646950	0.253390
O591	O59	0.280180	0.384700	0.244860
O601	O60	0.227470	0.330220	0.196380
C2251	C225	0.235730	0.517270	0.216480
H1551	H155	0.242000	0.515100	0.242600
C2261	C226	0.224120	0.582580	0.199310
C2271	C227	0.214980	0.585810	0.161130
H1561	H156	0.207000	0.630400	0.149400
C2281	C228	0.217450	0.523750	0.140120
C2291	C229	0.229060	0.458450	0.157300
H1571	H157	0.230700	0.416000	0.142900
C2301	C230	0.238200	0.455210	0.195480
C2311	C231	0.221520	0.649650	0.221160
C2321	C232	0.247850	0.384830	0.213570
C2331	C233	0.217990	0.527900	0.098290
C2341	C234	0.153670	0.535400	0.079570
C2351	C235	0.152760	0.537900	0.041080
H1581	H158	0.108800	0.543100	0.028300
C2361	C236	0.216200	0.532900	0.021320
C2371	C237	0.280470	0.525300	0.040040
H1591	H159	0.323800	0.521800	0.026500
C2381	C238	0.281390	0.522800	0.078530
C2391	C239	0.081700	0.554600	0.100450
H1601	H160	0.089100	0.551100	0.127300
H1611	H161	0.067400	0.603300	0.094100
H1621	H162	0.044200	0.521300	0.092900
C2401	C240	0.349200	0.501100	0.098840
H1631	H163	0.388900	0.499000	0.081200
H1641	H164	0.359900	0.536200	0.118200
H1651	H165	0.342400	0.454100	0.110200
O611	O61	0.803050	0.296160	0.205310
O621	O62	0.750310	0.353050	0.253390
O631	O63	0.719820	0.615300	0.244860
O641	O64	0.772530	0.669780	0.196380
C2411	C241	0.764270	0.482730	0.216480
H1661	H166	0.758000	0.484900	0.242600
C2421	C242	0.775880	0.417420	0.199310
C2431	C243	0.785020	0.414190	0.161130
H1671	H167	0.793000	0.369600	0.149400
C2441	C244	0.782550	0.476250	0.140120
C2451	C245	0.770940	0.541550	0.157300
H1681	H168	0.769300	0.584000	0.142900
C2461	C246	0.761800	0.544790	0.195480
C2471	C247	0.778480	0.350350	0.221160
C2481	C248	0.752150	0.615170	0.213570
C2491	C249	0.782010	0.472100	0.098290
C2501	C250	0.846330	0.464600	0.079570
C2511	C251	0.847240	0.462100	0.041080
H1691	H169	0.891200	0.456900	0.028300
C2521	C252	0.783800	0.467100	0.021320
C2531	C253	0.719530	0.474700	0.040040
H1701	H170	0.676200	0.478200	0.026500
C2541	C254	0.718610	0.477200	0.078530
C2551	C255	0.918300	0.445400	0.100450
H1711	H171	0.910900	0.448900	0.127300
H1721	H172	0.932600	0.396700	0.094100
H1731	H173	0.955800	0.478700	0.092900
C2561	C256	0.650800	0.498900	0.098840
H1741	H174	0.611100	0.501000	0.081200
H1751	H175	0.640100	0.463800	0.118200
H1761	H176	0.657600	0.545900	0.110200
Cu11	Cu1	0.201370	0.798630	0.226370
Cu21	Cu2	0.265780	0.734220	0.282790
Cu31	Cu3	0.798630	0.201370	0.226370
Cu41	Cu4	0.734220	0.265780	0.282790
Cu51	Cu5	0.701370	0.701370	0.726370
Cu61	Cu6	0.765780	0.765780	0.782790
Cu71	Cu7	0.298630	0.298630	0.726370
Cu81	Cu8	0.234220	0.234220	0.782790
Cu91	Cu9	0.298630	0.298630	0.273630
Cu101	Cu10	0.234220	0.234220	0.217210
Cu111	Cu11	0.701370	0.701370	0.273630
Cu121	Cu12	0.765780	0.765780	0.217210
Cu131	Cu13	0.798630	0.201370	0.773630
Cu141	Cu14	0.734220	0.265780	0.717210
Cu151	Cu15	0.201370	0.798630	0.773630
Cu161	Cu16	0.265780	0.734220	0.717210
