data_YABPAU_clean_PM
_symmetry_space_group_name_H-M	'P1'
_cell_length_a	9.805000
_cell_length_b	17.747000
_cell_length_c	21.359000
_cell_angle_alpha	103.130000
_cell_angle_beta	90.000000
_cell_angle_gamma	90.000000
_symmetry_Int_Tables_number 1

loop_
_symmetry_equiv_pos_as_xyz
'x,y,z'

loop_
_atom_site_label
_atom_site_type_symbol
_atom_site_fract_x
_atom_site_fract_y
_atom_site_fract_z
Mg11	Mg1	0.098390	0.221810	0.708880
Mg21	Mg2	0.769110	0.784680	0.938390
Mg31	Mg3	0.112290	0.302210	0.878330
Mg41	Mg4	0.598390	0.778190	0.791120
Mg51	Mg5	0.269110	0.215320	0.561610
Mg61	Mg6	0.612290	0.697790	0.621670
Mg71	Mg7	0.901610	0.778190	0.291120
Mg81	Mg8	0.230890	0.215320	0.061610
Mg91	Mg9	0.887710	0.697790	0.121670
Mg101	Mg10	0.401610	0.221810	0.208880
Mg111	Mg11	0.730890	0.784680	0.438390
Mg121	Mg12	0.387710	0.302210	0.378330
H11	H1	0.008600	0.992600	0.929500
H21	H2	0.088600	0.111400	0.901600
H31	H3	0.766600	0.559400	0.693200
H41	H4	0.840600	0.424300	0.676100
H51	H5	0.558000	0.226500	0.606700
H61	H6	0.788600	0.221100	0.648200
H71	H7	0.508600	0.007400	0.570500
H81	H8	0.588600	0.888600	0.598400
H91	H9	0.266600	0.440600	0.806800
H101	H10	0.340600	0.575700	0.823900
H111	H11	0.058000	0.773500	0.893300
H121	H12	0.288600	0.778900	0.851800
H131	H13	0.991400	0.007400	0.070500
H141	H14	0.911400	0.888600	0.098400
H151	H15	0.233400	0.440600	0.306800
H161	H16	0.159400	0.575700	0.323900
H171	H17	0.442000	0.773500	0.393300
H181	H18	0.211400	0.778900	0.351800
H191	H19	0.491400	0.992600	0.429500
H201	H20	0.411400	0.111400	0.401600
H211	H21	0.733400	0.559400	0.193200
H221	H22	0.659400	0.424300	0.176100
H231	H23	0.942000	0.226500	0.106700
H241	H24	0.711400	0.221100	0.148200
C11	C1	0.015600	0.242800	0.572420
C21	C2	0.517500	0.255780	0.481920
C31	C3	0.980300	0.008600	0.893010
C41	C4	0.819600	0.893770	0.850880
C51	C5	0.001200	0.147770	0.785160
C61	C6	0.803700	0.663010	0.813700
C71	C7	0.865900	0.245380	0.567110
C81	C8	0.842500	0.581460	0.784060
C91	C9	0.974800	0.370950	0.775200
C101	C10	0.889600	0.968250	0.849650
C111	C11	0.917400	0.445460	0.766770
C121	C12	0.970200	0.087520	0.820940
C131	C13	0.634400	0.249180	0.524330
C141	C14	0.026800	0.077250	0.876970
C151	C15	0.811200	0.539200	0.724150
C161	C16	0.854200	0.460990	0.714270
C171	C17	0.636200	0.234110	0.584250
C181	C18	0.769200	0.231370	0.608350
C191	C19	0.515600	0.757200	0.927580
C201	C20	0.017500	0.744220	0.018080
C211	C21	0.480300	0.991400	0.606990
C221	C22	0.319600	0.106230	0.649120
C231	C23	0.501200	0.852230	0.714840
C241	C24	0.303700	0.336990	0.686300
C251	C25	0.365900	0.754620	0.932890
C261	C26	0.342500	0.418540	0.715940
C271	C27	0.474800	0.629050	0.724800
C281	C28	0.389600	0.031750	0.650350
C291	C29	0.417400	0.554540	0.733230
C301	C30	0.470200	0.912480	0.679060
C311	C31	0.134400	0.750820	0.975670
C321	C32	0.526800	0.922750	0.623030
C331	C33	0.311200	0.460800	0.775850
C341	C34	0.354200	0.539010	0.785730
C351	C35	0.136200	0.765890	0.915750
C361	C36	0.269200	0.768630	0.891650
C371	C37	0.984400	0.757200	0.427580
C381	C38	0.482500	0.744220	0.518080
C391	C39	0.019700	0.991400	0.106990
C401	C40	0.180400	0.106230	0.149120
C411	C41	0.998800	0.852230	0.214840
C421	C42	0.196300	0.336990	0.186300
C431	C43	0.134100	0.754620	0.432890
C441	C44	0.157500	0.418540	0.215940
C451	C45	0.025200	0.629050	0.224800
C461	C46	0.110400	0.031750	0.150350
C471	C47	0.082600	0.554540	0.233230
C481	C48	0.029800	0.912480	0.179060
C491	C49	0.365600	0.750820	0.475670
C501	C50	0.973200	0.922750	0.123030
C511	C51	0.188800	0.460800	0.275850
C521	C52	0.145800	0.539010	0.285730
C531	C53	0.363800	0.765890	0.415750
C541	C54	0.230800	0.768630	0.391650
C551	C55	0.484400	0.242800	0.072420
C561	C56	0.982500	0.255780	0.981920
C571	C57	0.519700	0.008600	0.393010
C581	C58	0.680400	0.893770	0.350880
C591	C59	0.498800	0.147770	0.285160
C601	C60	0.696300	0.663010	0.313700
C611	C61	0.634100	0.245380	0.067110
C621	C62	0.657500	0.581460	0.284060
C631	C63	0.525200	0.370950	0.275200
C641	C64	0.610400	0.968250	0.349650
C651	C65	0.582600	0.445460	0.266770
C661	C66	0.529800	0.087520	0.320940
C671	C67	0.865600	0.249180	0.024330
C681	C68	0.473200	0.077250	0.376970
C691	C69	0.688800	0.539200	0.224150
C701	C70	0.645800	0.460990	0.214270
C711	C71	0.863800	0.234110	0.084250
C721	C72	0.730800	0.231370	0.108350
S11	S1	0.859700	0.013730	0.788010
S21	S2	0.926000	0.526670	0.828950
S31	S3	0.795570	0.261700	0.497900
S41	S4	0.359700	0.986270	0.711990
S51	S5	0.426000	0.473330	0.671050
S61	S6	0.295570	0.738300	0.002100
S71	S7	0.140300	0.986270	0.211990
S81	S8	0.074000	0.473330	0.171050
S91	S9	0.204430	0.738300	0.502100
S101	S10	0.640300	0.013730	0.288010
S111	S11	0.574000	0.526670	0.328950
S121	S12	0.704430	0.261700	0.997900
O11	O1	0.087210	0.200850	0.808230
O21	O2	0.856780	0.860360	0.893850
O31	O3	0.968100	0.314090	0.728110
O41	O4	0.753610	0.701630	0.776570
O51	O5	0.025900	0.371060	0.829260
O61	O6	0.949470	0.142860	0.730770
O71	O7	0.729740	0.871660	0.808980
O81	O8	0.821000	0.686130	0.873350
O91	O9	0.399110	0.240460	0.497760
O101	O10	0.543880	0.276430	0.430600
O111	O11	0.069440	0.209850	0.613440
O121	O12	0.087460	0.267170	0.533060
O131	O13	0.587210	0.799150	0.691770
O141	O14	0.356780	0.139640	0.606150
O151	O15	0.468100	0.685910	0.771890
O161	O16	0.253610	0.298370	0.723430
O171	O17	0.525900	0.628940	0.670740
O181	O18	0.449470	0.857140	0.769230
O191	O19	0.229740	0.128340	0.691020
O201	O20	0.321000	0.313870	0.626650
O211	O21	0.899110	0.759540	0.002240
O221	O22	0.043880	0.723570	0.069400
O231	O23	0.569440	0.790150	0.886560
O241	O24	0.587460	0.732830	0.966940
O251	O25	0.912790	0.799150	0.191770
O261	O26	0.143220	0.139640	0.106150
O271	O27	0.031900	0.685910	0.271890
O281	O28	0.246390	0.298370	0.223430
O291	O29	0.974100	0.628940	0.170740
O301	O30	0.050530	0.857140	0.269230
O311	O31	0.270260	0.128340	0.191020
O321	O32	0.179000	0.313870	0.126650
O331	O33	0.600890	0.759540	0.502240
O341	O34	0.456120	0.723570	0.569400
O351	O35	0.930560	0.790150	0.386560
O361	O36	0.912540	0.732830	0.466940
O371	O37	0.412790	0.200850	0.308230
O381	O38	0.643220	0.860360	0.393850
O391	O39	0.531900	0.314090	0.228110
O401	O40	0.746390	0.701630	0.276570
O411	O41	0.474100	0.371060	0.329260
O421	O42	0.550530	0.142860	0.230770
O431	O43	0.770260	0.871660	0.308980
O441	O44	0.679000	0.686130	0.373350
O451	O45	0.100890	0.240460	0.997760
O461	O46	0.956120	0.276430	0.930600
O471	O47	0.430560	0.209850	0.113440
O481	O48	0.412540	0.267170	0.033060
