data_YABWOP_clean_PM
_symmetry_space_group_name_H-M	'P1'
_cell_length_a	11.064400
_cell_length_b	13.989000
_cell_length_c	18.386600
_cell_angle_alpha	90.000000
_cell_angle_beta	103.381000
_cell_angle_gamma	90.000000
_symmetry_Int_Tables_number 1

loop_
_symmetry_equiv_pos_as_xyz
'x,y,z'

loop_
_atom_site_label
_atom_site_type_symbol
_atom_site_fract_x
_atom_site_fract_y
_atom_site_fract_z
V11	V1	0.979100	0.220700	0.275050
V21	V2	0.219770	0.463720	0.226930
P11	P1	0.250300	0.310430	0.359980
P21	P2	0.740950	0.167290	0.142190
P31	P3	0.034910	0.439010	0.337470
P41	P4	0.956810	0.039780	0.164140
F11	F1	0.609900	0.252600	0.433050
F21	F2	0.386000	0.226410	0.064010
O11	O1	0.352900	0.256100	0.412430
O21	O2	0.303300	0.379620	0.310070
O31	O3	0.099400	0.497880	0.286220
O41	O4	0.957600	0.501300	0.375740
O51	O5	0.957900	0.358380	0.291080
O61	O6	0.162200	0.237770	0.312030
O71	O7	0.031500	0.118500	0.213390
O81	O8	0.827100	0.237230	0.194860
O91	O9	0.037000	0.980190	0.126100
O101	O10	0.889600	0.977600	0.211870
O111	O11	0.683000	0.095220	0.187370
O121	O12	0.642200	0.225100	0.089900
O131	O13	0.147400	0.394200	0.162810
C11	C1	0.158800	0.382900	0.406700
H11	H1	0.210600	0.431600	0.436100
H21	H2	0.123700	0.343800	0.440200
C21	C2	0.837800	0.099200	0.094900
H31	H3	0.875700	0.141300	0.064600
H41	H4	0.788000	0.052300	0.062200
O141	O14	0.396000	0.578600	0.280200
O151	O15	0.067000	0.311000	0.160300
V31	V3	0.015500	0.257000	0.227300
V41	V4	0.273800	0.514400	0.273500
V51	V5	0.479100	0.720700	0.275050
V61	V6	0.719770	0.963720	0.226930
P51	P5	0.750300	0.810430	0.359980
P61	P6	0.240950	0.667290	0.142190
P71	P7	0.534910	0.939010	0.337470
P81	P8	0.456810	0.539780	0.164140
F31	F3	0.109900	0.752600	0.433050
F41	F4	0.886000	0.726410	0.064010
O161	O16	0.852900	0.756100	0.412430
O171	O17	0.803300	0.879620	0.310070
O181	O18	0.599400	0.997880	0.286220
O191	O19	0.457600	0.001300	0.375740
O201	O20	0.457900	0.858380	0.291080
O211	O21	0.662200	0.737770	0.312030
O221	O22	0.531500	0.618500	0.213390
O231	O23	0.327100	0.737230	0.194860
O241	O24	0.537000	0.480190	0.126100
O251	O25	0.389600	0.477600	0.211870
O261	O26	0.183000	0.595220	0.187370
O271	O27	0.142200	0.725100	0.089900
O281	O28	0.647400	0.894200	0.162810
C31	C3	0.658800	0.882900	0.406700
H51	H5	0.710600	0.931600	0.436100
H61	H6	0.623700	0.843800	0.440200
C41	C4	0.337800	0.599200	0.094900
H71	H7	0.375700	0.641300	0.064600
H81	H8	0.288000	0.552300	0.062200
O291	O29	0.896000	0.078600	0.280200
O301	O30	0.567000	0.811000	0.160300
V71	V7	0.515500	0.757000	0.227300
V81	V8	0.773800	0.014400	0.273500
V91	V9	0.020900	0.220700	0.724950
V101	V10	0.780230	0.463720	0.773070
P91	P9	0.749700	0.310430	0.640020
P101	P10	0.259050	0.167290	0.857810
P111	P11	0.965090	0.439010	0.662530
P121	P12	0.043190	0.039780	0.835860
F51	F5	0.390100	0.252600	0.566950
F61	F6	0.614000	0.226410	0.935990
O311	O31	0.647100	0.256100	0.587570
O321	O32	0.696700	0.379620	0.689930
O331	O33	0.900600	0.497880	0.713780
O341	O34	0.042400	0.501300	0.624260
O351	O35	0.042100	0.358380	0.708920
O361	O36	0.837800	0.237770	0.687970
O371	O37	0.968500	0.118500	0.786610
O381	O38	0.172900	0.237230	0.805140
O391	O39	0.963000	0.980190	0.873900
O401	O40	0.110400	0.977600	0.788130
O411	O41	0.317000	0.095220	0.812630
O421	O42	0.357800	0.225100	0.910100
O431	O43	0.852600	0.394200	0.837190
C51	C5	0.841200	0.382900	0.593300
H91	H9	0.789400	0.431600	0.563900
H101	H10	0.876300	0.343800	0.559800
C61	C6	0.162200	0.099200	0.905100
H111	H11	0.124300	0.141300	0.935400
H121	H12	0.212000	0.052300	0.937800
O441	O44	0.604000	0.578600	0.719800
O451	O45	0.933000	0.311000	0.839700
V111	V11	0.984500	0.257000	0.772700
V121	V12	0.726200	0.514400	0.726500
V131	V13	0.520900	0.720700	0.724950
V141	V14	0.280230	0.963720	0.773070
P131	P13	0.249700	0.810430	0.640020
P141	P14	0.759050	0.667290	0.857810
P151	P15	0.465090	0.939010	0.662530
P161	P16	0.543190	0.539780	0.835860
F71	F7	0.890100	0.752600	0.566950
F81	F8	0.114000	0.726410	0.935990
O461	O46	0.147100	0.756100	0.587570
O471	O47	0.196700	0.879620	0.689930
O481	O48	0.400600	0.997880	0.713780
O491	O49	0.542400	0.001300	0.624260
O501	O50	0.542100	0.858380	0.708920
O511	O51	0.337800	0.737770	0.687970
O521	O52	0.468500	0.618500	0.786610
O531	O53	0.672900	0.737230	0.805140
O541	O54	0.463000	0.480190	0.873900
O551	O55	0.610400	0.477600	0.788130
O561	O56	0.817000	0.595220	0.812630
O571	O57	0.857800	0.725100	0.910100
O581	O58	0.352600	0.894200	0.837190
C71	C7	0.341200	0.882900	0.593300
H131	H13	0.289400	0.931600	0.563900
H141	H14	0.376300	0.843800	0.559800
C81	C8	0.662200	0.599200	0.905100
H151	H15	0.624300	0.641300	0.935400
H161	H16	0.712000	0.552300	0.937800
O591	O59	0.104000	0.078600	0.719800
O601	O60	0.433000	0.811000	0.839700
V151	V15	0.484500	0.757000	0.772700
V161	V16	0.226200	0.014400	0.726500
V171	V17	0.500000	0.274600	0.500000
V181	V18	0.000000	0.774600	0.500000
V191	V19	0.500000	0.204290	0.000000
V201	V20	0.000000	0.704290	0.000000
