data_YACHUH_clean_PM
_symmetry_space_group_name_H-M	'P1'
_cell_length_a	10.068100
_cell_length_b	10.745400
_cell_length_c	13.707300
_cell_angle_alpha	79.161000
_cell_angle_beta	78.812000
_cell_angle_gamma	86.568000
_symmetry_Int_Tables_number 1

loop_
_symmetry_equiv_pos_as_xyz
'x,y,z'

loop_
_atom_site_label
_atom_site_type_symbol
_atom_site_fract_x
_atom_site_fract_y
_atom_site_fract_z
Yb11	Yb1	0.319430	0.922170	0.795670
Yb21	Yb2	0.680570	0.077830	0.204330
Co11	Co1	0.000000	0.500000	0.000000
H11	H1	0.280900	0.359600	0.868700
H21	H2	0.347300	0.326800	0.575400
H31	H3	0.328800	0.670500	0.651500
H41	H4	0.356100	0.450400	0.240400
H51	H5	0.365200	0.568300	0.082600
H61	H6	0.354300	0.880300	0.185200
H71	H7	0.346600	0.773200	0.348200
H81	H8	0.822400	0.914100	0.784200
H91	H9	0.693400	0.857000	0.537300
H101	H10	0.090900	0.840700	0.543100
H111	H11	0.007200	0.476300	0.370700
H121	H12	0.015100	0.407200	0.221700
H131	H13	0.033700	0.751800	0.070600
H141	H14	0.017500	0.832200	0.215200
H151	H15	0.380800	0.646000	0.480300
H161	H16	0.880700	0.846200	0.381800
H171	H17	0.719100	0.640400	0.131300
H181	H18	0.652700	0.673200	0.424600
H191	H19	0.671200	0.329500	0.348500
H201	H20	0.643900	0.549600	0.759600
H211	H21	0.634800	0.431700	0.917400
H221	H22	0.645700	0.119700	0.814800
H231	H23	0.653400	0.226800	0.651800
H241	H24	0.177600	0.085900	0.215800
H251	H25	0.306600	0.143000	0.462700
H261	H26	0.909100	0.159300	0.456900
H271	H27	0.992800	0.523700	0.629300
H281	H28	0.984900	0.592800	0.778300
H291	H29	0.966300	0.248200	0.929400
H301	H30	0.982500	0.167800	0.784800
H311	H31	0.619200	0.354000	0.519700
H321	H32	0.119300	0.153800	0.618200
C11	C1	0.300300	0.527700	0.772100
C21	C2	0.296400	0.397200	0.800800
C31	C3	0.316400	0.323100	0.725300
C41	C4	0.335200	0.377800	0.624400
C51	C5	0.336100	0.508700	0.595900
C61	C6	0.322700	0.582900	0.670100
C71	C7	0.312100	0.182200	0.752300
C81	C8	0.269000	0.609100	0.852000
C91	C9	0.331800	0.516000	0.416800
C101	C10	0.348500	0.598800	0.314500
C111	C11	0.355500	0.538400	0.231400
C121	C12	0.361300	0.610100	0.136700
C131	C13	0.355200	0.792200	0.196900
C141	C14	0.349600	0.728600	0.295900
C151	C15	0.093700	0.891500	0.719100
C161	C16	0.973700	0.880900	0.670600
C171	C17	0.840600	0.896900	0.718800
C181	C18	0.736900	0.887500	0.670200
C191	C19	0.764100	0.860500	0.571300
C201	C20	0.894800	0.839400	0.525700
C211	C21	0.001700	0.851900	0.574800
C221	C22	0.590800	0.903100	0.716700
C231	C23	0.005700	0.706800	0.408900
C241	C24	0.008600	0.664500	0.310200
C251	C25	0.009900	0.534300	0.310800
C261	C26	0.015300	0.494000	0.220700
C271	C27	0.025000	0.696200	0.132100
C281	C28	0.017100	0.745000	0.218500
C291	C29	0.699700	0.472300	0.227900
C301	C30	0.703600	0.602800	0.199200
C311	C31	0.683600	0.676900	0.274700
C321	C32	0.664800	0.622200	0.375600
C331	C33	0.663900	0.491300	0.404100
C341	C34	0.677300	0.417100	0.329900
C351	C35	0.687900	0.817800	0.247700
C361	C36	0.731000	0.390900	0.148000
C371	C37	0.668200	0.484000	0.583200
C381	C38	0.651500	0.401200	0.685500
C391	C39	0.644500	0.461600	0.768600
C401	C40	0.638700	0.389900	0.863300
C411	C41	0.644800	0.207800	0.803100
C421	C42	0.650400	0.271400	0.704100
C431	C43	0.906300	0.108500	0.280900
C441	C44	0.026300	0.119100	0.329400
C451	C45	0.159400	0.103100	0.281200
C461	C46	0.263100	0.112500	0.329800
C471	C47	0.235900	0.139500	0.428700
C481	C48	0.105200	0.160600	0.474300
C491	C49	0.998300	0.148100	0.425200
C501	C50	0.409200	0.096900	0.283300
C511	C51	0.994300	0.293200	0.591100
C521	C52	0.991400	0.335500	0.689800
C531	C53	0.990100	0.465700	0.689200
C541	C54	0.984700	0.506000	0.779300
C551	C55	0.975000	0.303800	0.867900
C561	C56	0.982900	0.255000	0.781500
N11	N1	0.353800	0.569100	0.494500
N21	N2	0.361700	0.735500	0.118300
N31	N3	0.920300	0.804500	0.428600
N41	N4	0.020700	0.570800	0.132700
N51	N5	0.646200	0.430900	0.505500
N61	N6	0.638300	0.264500	0.881700
N71	N7	0.079700	0.195500	0.571400
N81	N8	0.979300	0.429200	0.867300
O11	O1	0.193600	0.568400	0.933200
O21	O2	0.324500	0.716600	0.830400
O31	O3	0.293500	0.117900	0.689400
O41	O4	0.329200	0.125400	0.838400
O51	O5	0.305700	0.405700	0.425200
O61	O6	0.209600	0.883700	0.669400
O71	O7	0.076400	0.908000	0.810700
O81	O8	0.556200	0.903300	0.811000
O91	O9	0.501100	0.916700	0.664700
O101	O10	0.077300	0.651500	0.467200
O111	O11	0.806400	0.431600	0.066800
O121	O12	0.675500	0.283400	0.169600
O131	O13	0.706500	0.882100	0.310600
O141	O14	0.670800	0.874600	0.161600
O151	O15	0.694300	0.594300	0.574800
O161	O16	0.790400	0.116300	0.330600
O171	O17	0.923600	0.092000	0.189300
O181	O18	0.443800	0.096700	0.189000
O191	O19	0.498900	0.083300	0.335300
O201	O20	0.922700	0.348500	0.532800
