data_YADMIB_clean_PM
_symmetry_space_group_name_H-M	'P1'
_cell_length_a	10.081600
_cell_length_b	10.784400
_cell_length_c	13.731600
_cell_angle_alpha	79.174000
_cell_angle_beta	78.771000
_cell_angle_gamma	86.355000
_symmetry_Int_Tables_number 1

loop_
_symmetry_equiv_pos_as_xyz
'x,y,z'

loop_
_atom_site_label
_atom_site_type_symbol
_atom_site_fract_x
_atom_site_fract_y
_atom_site_fract_z
Er11	Er1	0.181760	0.077760	0.203740
Er21	Er2	0.818240	0.922240	0.796260
Co11	Co1	0.500000	0.500000	0.000000
H11	H1	0.171200	0.329300	0.347200
H21	H2	0.154300	0.673400	0.423800
H31	H3	0.219700	0.640600	0.131800
H41	H4	0.141600	0.547400	0.759400
H51	H5	0.133800	0.430200	0.915700
H61	H6	0.144200	0.118400	0.811200
H71	H7	0.154300	0.227000	0.650900
H81	H8	0.805400	0.147300	0.462500
H91	H9	0.410400	0.158000	0.458700
H101	H10	0.676300	0.085300	0.216500
H111	H11	0.492300	0.521700	0.629100
H121	H12	0.485000	0.593200	0.777500
H131	H13	0.464600	0.250300	0.929700
H141	H14	0.483300	0.167000	0.784900
H151	H15	0.119900	0.353700	0.518100
H161	H16	0.616900	0.154000	0.619400
H171	H17	0.828800	0.670700	0.652800
H181	H18	0.845700	0.326600	0.576200
H191	H19	0.780300	0.359400	0.868200
H201	H20	0.858400	0.452600	0.240600
H211	H21	0.866200	0.569800	0.084300
H221	H22	0.855800	0.881600	0.188800
H231	H23	0.845700	0.773000	0.349100
H241	H24	0.194600	0.852700	0.537500
H251	H25	0.589600	0.842000	0.541300
H261	H26	0.323700	0.914700	0.783500
H271	H27	0.507700	0.478300	0.370900
H281	H28	0.515000	0.406800	0.222500
H291	H29	0.535400	0.749700	0.070300
H301	H30	0.516700	0.833000	0.215100
H311	H31	0.880100	0.646300	0.481900
H321	H32	0.383100	0.846000	0.380600
C11	C1	0.201000	0.472600	0.227700
C21	C2	0.177700	0.416500	0.329100
C31	C3	0.164000	0.490900	0.404100
C41	C4	0.165500	0.622300	0.375100
C51	C5	0.183300	0.675700	0.275000
C61	C6	0.204100	0.602800	0.199600
C71	C7	0.186900	0.816300	0.248200
C81	C8	0.231800	0.392600	0.147400
C91	C9	0.165100	0.483100	0.583000
C101	C10	0.150600	0.400000	0.685800
C111	C11	0.143200	0.459700	0.768200
C121	C12	0.138500	0.388400	0.861700
C131	C13	0.144800	0.206100	0.800400
C141	C14	0.150500	0.270600	0.703700
C151	C15	0.764000	0.112900	0.331000
C161	C16	0.735100	0.141400	0.428900
C171	C17	0.605700	0.160300	0.474300
C181	C18	0.499400	0.147900	0.426200
C191	C19	0.526200	0.120400	0.330200
C201	C20	0.658600	0.103200	0.281500
C211	C21	0.909200	0.098100	0.283000
C221	C22	0.407300	0.108400	0.282300
C231	C23	0.494200	0.293500	0.590200
C241	C24	0.490600	0.336400	0.690000
C251	C25	0.489600	0.464500	0.689200
C261	C26	0.484500	0.506700	0.778900
C271	C27	0.474200	0.305100	0.867900
C281	C28	0.482800	0.254000	0.781600
C291	C29	0.799000	0.527400	0.772300
C301	C30	0.822300	0.583500	0.670900
C311	C31	0.836000	0.509100	0.595900
C321	C32	0.834500	0.377700	0.624900
C331	C33	0.816700	0.324300	0.725000
C341	C34	0.795900	0.397200	0.800400
C351	C35	0.813100	0.183700	0.751800
C361	C36	0.768200	0.607400	0.852600
C371	C37	0.834900	0.516900	0.417000
C381	C38	0.849400	0.600000	0.314200
C391	C39	0.856800	0.540300	0.231800
C401	C40	0.861500	0.611600	0.138300
C411	C41	0.855200	0.793900	0.199600
C421	C42	0.849500	0.729400	0.296300
C431	C43	0.236000	0.887100	0.669000
C441	C44	0.264900	0.858600	0.571100
C451	C45	0.394300	0.839700	0.525700
C461	C46	0.500600	0.852100	0.573800
C471	C47	0.473800	0.879600	0.669800
C481	C48	0.341400	0.896800	0.718500
C491	C49	0.090800	0.901900	0.717000
C501	C50	0.592700	0.891600	0.717700
C511	C51	0.505800	0.706500	0.409800
C521	C52	0.509400	0.663600	0.310000
C531	C53	0.510400	0.535500	0.310800
C541	C54	0.515500	0.493300	0.221100
C551	C55	0.525800	0.694900	0.132100
C561	C56	0.517200	0.746000	0.218400
N11	N1	0.145700	0.430600	0.504600
N21	N2	0.140000	0.262400	0.880900
N31	N3	0.578700	0.195700	0.572000
N41	N4	0.478800	0.429000	0.867700
N51	N5	0.854300	0.569400	0.495400
N61	N6	0.860000	0.737600	0.119100
N71	N7	0.421300	0.804300	0.428000
N81	N8	0.521200	0.571000	0.132300
O11	O1	0.305900	0.434400	0.065400
O21	O2	0.179300	0.285300	0.166500
O31	O3	0.170300	0.872900	0.162100
O41	O4	0.207500	0.880000	0.310200
O51	O5	0.192600	0.593000	0.574900
O61	O6	0.943900	0.098500	0.189200
O71	O7	0.998400	0.084100	0.335600
O81	O8	0.424200	0.092100	0.191000
O91	O9	0.290500	0.115600	0.331400
O101	O10	0.424800	0.350300	0.533200
O111	O11	0.694100	0.565600	0.934600
O121	O12	0.820700	0.714700	0.833500
O131	O13	0.829700	0.127100	0.837900
O141	O14	0.792500	0.120000	0.689800
O151	O15	0.807400	0.407000	0.425100
O161	O16	0.056100	0.901500	0.810800
O171	O17	0.001600	0.915900	0.664400
O181	O18	0.575800	0.907900	0.809000
O191	O19	0.709500	0.884400	0.668600
O201	O20	0.575200	0.649700	0.466800
