data_YAFDAM_clean_PM
_symmetry_space_group_name_H-M	'P1'
_cell_length_a	10.059700
_cell_length_b	10.782400
_cell_length_c	13.726100
_cell_angle_alpha	79.141000
_cell_angle_beta	78.801000
_cell_angle_gamma	86.578000
_symmetry_Int_Tables_number 1

loop_
_symmetry_equiv_pos_as_xyz
'x,y,z'

loop_
_atom_site_label
_atom_site_type_symbol
_atom_site_fract_x
_atom_site_fract_y
_atom_site_fract_z
Ho11	Ho1	0.319430	0.922160	0.795660
Ho21	Ho2	0.680570	0.077840	0.204340
Co11	Co1	0.000000	0.500000	0.000000
H11	H1	0.280700	0.359300	0.868500
H21	H2	0.347100	0.327000	0.575400
H31	H3	0.329100	0.670400	0.651500
H41	H4	0.354800	0.450600	0.240000
H51	H5	0.366600	0.569000	0.082400
H61	H6	0.354700	0.879500	0.185000
H71	H7	0.346400	0.774000	0.347500
H81	H8	0.822600	0.913000	0.784600
H91	H9	0.693000	0.856000	0.537700
H101	H10	0.091400	0.842100	0.543200
H111	H11	0.008000	0.477200	0.370600
H121	H12	0.014800	0.407100	0.222000
H131	H13	0.034200	0.751500	0.070500
H141	H14	0.016900	0.832100	0.215600
H151	H15	0.380400	0.645900	0.480400
H161	H16	0.881000	0.847100	0.382400
H171	H17	0.719300	0.640700	0.131500
H181	H18	0.652900	0.673000	0.424600
H191	H19	0.670900	0.329600	0.348500
H201	H20	0.645200	0.549400	0.760000
H211	H21	0.633400	0.431000	0.917600
H221	H22	0.645300	0.120500	0.815000
H231	H23	0.653600	0.226000	0.652500
H241	H24	0.177400	0.087000	0.215400
H251	H25	0.307000	0.144000	0.462300
H261	H26	0.908600	0.157900	0.456800
H271	H27	0.992000	0.522800	0.629400
H281	H28	0.985200	0.592900	0.778000
H291	H29	0.965800	0.248500	0.929500
H301	H30	0.983100	0.167900	0.784400
H311	H31	0.619600	0.354100	0.519600
H321	H32	0.119000	0.152900	0.617600
C11	C1	0.300600	0.528100	0.772100
C21	C2	0.296500	0.396800	0.800700
C31	C3	0.316600	0.323000	0.725400
C41	C4	0.335300	0.377700	0.624400
C51	C5	0.336400	0.508700	0.595900
C61	C6	0.323000	0.583100	0.670200
C71	C7	0.312500	0.182300	0.752400
C81	C8	0.269200	0.608700	0.851900
C91	C9	0.332000	0.516100	0.416500
C101	C10	0.349100	0.598800	0.314400
C111	C11	0.355200	0.538200	0.231100
C121	C12	0.361800	0.610200	0.136800
C131	C13	0.355400	0.791700	0.196800
C141	C14	0.349700	0.729200	0.295400
C151	C15	0.093400	0.891800	0.718900
C161	C16	0.974000	0.881000	0.670400
C171	C17	0.840700	0.896500	0.719100
C181	C18	0.736700	0.887500	0.670000
C191	C19	0.763800	0.860000	0.571500
C201	C20	0.894900	0.839400	0.525600
C211	C21	0.002100	0.852600	0.575000
C221	C22	0.590800	0.902900	0.716800
C231	C23	0.006100	0.705800	0.409400
C241	C24	0.008500	0.664300	0.310300
C251	C25	0.010200	0.534900	0.310700
C261	C26	0.015300	0.493700	0.220600
C271	C27	0.025200	0.696100	0.132000
C281	C28	0.016900	0.745100	0.218700
C291	C29	0.699400	0.471900	0.227900
C301	C30	0.703500	0.603200	0.199300
C311	C31	0.683400	0.677000	0.274600
C321	C32	0.664700	0.622300	0.375600
C331	C33	0.663600	0.491300	0.404100
C341	C34	0.677000	0.416900	0.329800
C351	C35	0.687500	0.817700	0.247600
C361	C36	0.730800	0.391300	0.148100
C371	C37	0.668000	0.483900	0.583500
C381	C38	0.650900	0.401200	0.685600
C391	C39	0.644800	0.461800	0.768900
C401	C40	0.638200	0.389800	0.863200
C411	C41	0.644600	0.208300	0.803200
C421	C42	0.650300	0.270800	0.704600
C431	C43	0.906600	0.108200	0.281100
C441	C44	0.026000	0.119000	0.329600
C451	C45	0.159300	0.103500	0.280900
C461	C46	0.263300	0.112500	0.330000
C471	C47	0.236200	0.140000	0.428500
C481	C48	0.105100	0.160600	0.474400
C491	C49	0.997900	0.147400	0.425000
C501	C50	0.409200	0.097100	0.283200
C511	C51	0.993900	0.294200	0.590600
C521	C52	0.991500	0.335700	0.689700
C531	C53	0.989800	0.465100	0.689300
C541	C54	0.984700	0.506300	0.779400
C551	C55	0.974800	0.303900	0.868000
C561	C56	0.983100	0.254900	0.781300
N11	N1	0.353800	0.569100	0.494500
N21	N2	0.361700	0.735800	0.118700
N31	N3	0.920100	0.805200	0.429200
N41	N4	0.020800	0.570400	0.132500
N51	N5	0.646200	0.430900	0.505500
N61	N6	0.638300	0.264200	0.881300
N71	N7	0.079900	0.194800	0.570800
N81	N8	0.979200	0.429600	0.867500
O11	O1	0.193900	0.567900	0.933400
O21	O2	0.324600	0.716600	0.830500
O31	O3	0.293600	0.117700	0.689500
O41	O4	0.328800	0.125400	0.838500
O51	O5	0.305800	0.405800	0.425100
O61	O6	0.209800	0.883500	0.669100
O71	O7	0.076200	0.907900	0.810700
O81	O8	0.556400	0.903300	0.811100
O91	O9	0.500700	0.916100	0.664500
O101	O10	0.077400	0.651600	0.467200
O111	O11	0.806100	0.432100	0.066600
O121	O12	0.675400	0.283400	0.169500
O131	O13	0.706400	0.882300	0.310500
O141	O14	0.671200	0.874600	0.161500
O151	O15	0.694200	0.594200	0.574900
O161	O16	0.790200	0.116500	0.330900
O171	O17	0.923800	0.092100	0.189300
O181	O18	0.443600	0.096700	0.188900
O191	O19	0.499300	0.083900	0.335500
O201	O20	0.922600	0.348400	0.532800
