data_YAJXUF_clean_PM
_symmetry_space_group_name_H-M	'P1'
_cell_length_a	17.430100
_cell_length_b	26.270000
_cell_length_c	15.459600
_cell_angle_alpha	90.000000
_cell_angle_beta	113.498000
_cell_angle_gamma	90.000000
_symmetry_Int_Tables_number 1

loop_
_symmetry_equiv_pos_as_xyz
'x,y,z'

loop_
_atom_site_label
_atom_site_type_symbol
_atom_site_fract_x
_atom_site_fract_y
_atom_site_fract_z
U11	U1	0.149580	0.737910	0.584170
Zn11	Zn1	0.265990	0.469990	0.500640
N11	N1	0.389900	0.443850	0.563500
N21	N2	0.336400	0.537930	0.564100
C11	C1	0.141500	0.686500	0.741000
N31	N3	0.201100	0.597960	0.946300
C21	C2	0.142100	0.661970	0.828100
N41	N4	0.215600	0.547720	0.099200
C31	C3	0.471700	0.574490	0.618400
H11	H1	0.529500	0.570600	0.642800
C41	C4	0.192900	0.619870	0.865000
H21	H2	0.222500	0.606400	0.831800
C51	C5	0.492900	0.379230	0.593100
C61	C6	0.307700	0.678380	0.552600
C71	C7	0.174100	0.592200	0.085400
C81	C8	0.435700	0.623360	0.604300
H31	H3	0.469100	0.652300	0.616400
C91	C9	0.302800	0.583740	0.553400
H41	H4	0.245000	0.586700	0.532300
C101	C10	0.450800	0.479340	0.599800
C111	C11	0.420300	0.532770	0.595700
C121	C12	0.411200	0.395430	0.560800
H51	H5	0.368900	0.371400	0.535900
C131	C13	0.350800	0.627420	0.572600
C141	C14	0.148100	0.611500	0.152200
H61	H6	0.117800	0.641700	0.141200
C151	C15	0.556100	0.415300	0.630100
H71	H7	0.612000	0.405800	0.652300
C161	C16	0.158700	0.617800	0.994600
C171	C17	0.209700	0.540700	0.251000
C181	C18	0.167900	0.585300	0.235800
H81	H8	0.152200	0.598500	0.282200
C191	C19	0.533700	0.466000	0.633300
H91	H9	0.574900	0.490800	0.658000
C201	C20	0.232700	0.522690	0.180400
H101	H10	0.261200	0.491900	0.189700
C211	C21	0.232400	0.510400	0.340000
C221	C22	0.105400	0.658500	0.961400
H111	H11	0.074700	0.670600	0.994400
C231	C23	0.098500	0.681200	0.877800
H121	H12	0.064400	0.709500	0.855300
C241	C24	0.510300	0.323900	0.581900
O11	O1	0.232500	0.679250	0.543000
O21	O2	0.348500	0.716460	0.545800
O31	O3	0.292400	0.479950	0.361000
O41	O4	0.103500	0.728420	0.714400
O51	O5	0.177700	0.665660	0.694800
O61	O6	0.192800	0.517380	0.391000
O71	O7	0.585300	0.314140	0.595000
O81	O8	0.454900	0.293250	0.564100
U21	U2	0.649580	0.237910	0.584170
Zn21	Zn2	0.765990	0.969990	0.500640
N51	N5	0.889900	0.943850	0.563500
N61	N6	0.836400	0.037930	0.564100
C251	C25	0.641500	0.186500	0.741000
N71	N7	0.701100	0.097960	0.946300
C261	C26	0.642100	0.161970	0.828100
N81	N8	0.715600	0.047720	0.099200
C271	C27	0.971700	0.074490	0.618400
H131	H13	0.029500	0.070600	0.642800
C281	C28	0.692900	0.119870	0.865000
H141	H14	0.722500	0.106400	0.831800
C291	C29	0.992900	0.879230	0.593100
C301	C30	0.807700	0.178380	0.552600
C311	C31	0.674100	0.092200	0.085400
C321	C32	0.935700	0.123360	0.604300
H151	H15	0.969100	0.152300	0.616400
C331	C33	0.802800	0.083740	0.553400
H161	H16	0.745000	0.086700	0.532300
C341	C34	0.950800	0.979340	0.599800
C351	C35	0.920300	0.032770	0.595700
C361	C36	0.911200	0.895430	0.560800
H171	H17	0.868900	0.871400	0.535900
C371	C37	0.850800	0.127420	0.572600
C381	C38	0.648100	0.111500	0.152200
H181	H18	0.617800	0.141700	0.141200
C391	C39	0.056100	0.915300	0.630100
H191	H19	0.112000	0.905800	0.652300
C401	C40	0.658700	0.117800	0.994600
C411	C41	0.709700	0.040700	0.251000
C421	C42	0.667900	0.085300	0.235800
H201	H20	0.652200	0.098500	0.282200
C431	C43	0.033700	0.966000	0.633300
H211	H21	0.074900	0.990800	0.658000
C441	C44	0.732700	0.022690	0.180400
H221	H22	0.761200	0.991900	0.189700
C451	C45	0.732400	0.010400	0.340000
C461	C46	0.605400	0.158500	0.961400
H231	H23	0.574700	0.170600	0.994400
C471	C47	0.598500	0.181200	0.877800
H241	H24	0.564400	0.209500	0.855300
C481	C48	0.010300	0.823900	0.581900
O91	O9	0.732500	0.179250	0.543000
O101	O10	0.848500	0.216460	0.545800
O111	O11	0.792400	0.979950	0.361000
O121	O12	0.603500	0.228420	0.714400
O131	O13	0.677700	0.165660	0.694800
O141	O14	0.692800	0.017380	0.391000
O151	O15	0.085300	0.814140	0.595000
O161	O16	0.954900	0.793250	0.564100
U31	U3	0.850420	0.737910	0.915830
Zn31	Zn3	0.734010	0.469990	0.999360
N91	N9	0.610100	0.443850	0.936500
N101	N10	0.663600	0.537930	0.935900
C491	C49	0.858500	0.686500	0.759000
N111	N11	0.798900	0.597960	0.553700
C501	C50	0.857900	0.661970	0.671900
N121	N12	0.784400	0.547720	0.400800
C511	C51	0.528300	0.574490	0.881600
H251	H25	0.470500	0.570600	0.857200
C521	C52	0.807100	0.619870	0.635000
H261	H26	0.777500	0.606400	0.668200
C531	C53	0.507100	0.379230	0.906900
C541	C54	0.692300	0.678380	0.947400
C551	C55	0.825900	0.592200	0.414600
C561	C56	0.564300	0.623360	0.895700
H271	H27	0.530900	0.652300	0.883600
C571	C57	0.697200	0.583740	0.946600
H281	H28	0.755000	0.586700	0.967700
C581	C58	0.549200	0.479340	0.900200
C591	C59	0.579700	0.532770	0.904300
C601	C60	0.588800	0.395430	0.939200
H291	H29	0.631100	0.371400	0.964100
C611	C61	0.649200	0.627420	0.927400
C621	C62	0.851900	0.611500	0.347800
H301	H30	0.882200	0.641700	0.358800
C631	C63	0.443900	0.415300	0.869900
H311	H31	0.388000	0.405800	0.847700
C641	C64	0.841300	0.617800	0.505400
C651	C65	0.790300	0.540700	0.249000
C661	C66	0.832100	0.585300	0.264200
H321	H32	0.847800	0.598500	0.217800
C671	C67	0.466300	0.466000	0.866700
H331	H33	0.425100	0.490800	0.842000
C681	C68	0.767300	0.522690	0.319600
H341	H34	0.738800	0.491900	0.310300
C691	C69	0.767600	0.510400	0.160000
C701	C70	0.894600	0.658500	0.538600
H351	H35	0.925300	0.670600	0.505600
C711	C71	0.901500	0.681200	0.622200
H361	H36	0.935600	0.709500	0.644700
C721	C72	0.489700	0.323900	0.918100
O171	O17	0.767500	0.679250	0.957000
O181	O18	0.651500	0.716460	0.954200
O191	O19	0.707600	0.479950	0.139000
O201	O20	0.896500	0.728420	0.785600
O211	O21	0.822300	0.665660	0.805200
O221	O22	0.807200	0.517380	0.109000
O231	O23	0.414700	0.314140	0.905000
O241	O24	0.545100	0.293250	0.935900
U41	U4	0.350420	0.237910	0.915830
Zn41	Zn4	0.234010	0.969990	0.999360
N131	N13	0.110100	0.943850	0.936500
N141	N14	0.163600	0.037930	0.935900
C731	C73	0.358500	0.186500	0.759000
N151	N15	0.298900	0.097960	0.553700
C741	C74	0.357900	0.161970	0.671900
N161	N16	0.284400	0.047720	0.400800
C751	C75	0.028300	0.074490	0.881600
H371	H37	0.970500	0.070600	0.857200
C761	C76	0.307100	0.119870	0.635000
H381	H38	0.277500	0.106400	0.668200
C771	C77	0.007100	0.879230	0.906900
C781	C78	0.192300	0.178380	0.947400
C791	C79	0.325900	0.092200	0.414600
C801	C80	0.064300	0.123360	0.895700
H391	H39	0.030900	0.152300	0.883600
C811	C81	0.197200	0.083740	0.946600
H401	H40	0.255000	0.086700	0.967700
C821	C82	0.049200	0.979340	0.900200
C831	C83	0.079700	0.032770	0.904300
C841	C84	0.088800	0.895430	0.939200
H411	H41	0.131100	0.871400	0.964100
C851	C85	0.149200	0.127420	0.927400
C861	C86	0.351900	0.111500	0.347800
H421	H42	0.382200	0.141700	0.358800
C871	C87	0.943900	0.915300	0.869900
H431	H43	0.888000	0.905800	0.847700
C881	C88	0.341300	0.117800	0.505400
C891	C89	0.290300	0.040700	0.249000
C901	C90	0.332100	0.085300	0.264200
H441	H44	0.347800	0.098500	0.217800
C911	C91	0.966300	0.966000	0.866700
H451	H45	0.925100	0.990800	0.842000
C921	C92	0.267300	0.022690	0.319600
H461	H46	0.238800	0.991900	0.310300
C931	C93	0.267600	0.010400	0.160000
C941	C94	0.394600	0.158500	0.538600
H471	H47	0.425300	0.170600	0.505600
C951	C95	0.401500	0.181200	0.622200
H481	H48	0.435600	0.209500	0.644700
C961	C96	0.989700	0.823900	0.918100
O251	O25	0.267500	0.179250	0.957000
O261	O26	0.151500	0.216460	0.954200
O271	O27	0.207600	0.979950	0.139000
O281	O28	0.396500	0.228420	0.785600
O291	O29	0.322300	0.165660	0.805200
O301	O30	0.307200	0.017380	0.109000
O311	O31	0.914700	0.814140	0.905000
O321	O32	0.045100	0.793250	0.935900
U51	U5	0.850420	0.262090	0.415830
Zn51	Zn5	0.734010	0.530010	0.499360
N171	N17	0.610100	0.556150	0.436500
N181	N18	0.663600	0.462070	0.435900
C971	C97	0.858500	0.313500	0.259000
N191	N19	0.798900	0.402040	0.053700
C981	C98	0.857900	0.338030	0.171900
N201	N20	0.784400	0.452280	0.900800
C991	C99	0.528300	0.425510	0.381600
H491	H49	0.470500	0.429400	0.357200
C1001	C100	0.807100	0.380130	0.135000
H501	H50	0.777500	0.393600	0.168200
C1011	C101	0.507100	0.620770	0.406900
C1021	C102	0.692300	0.321620	0.447400
C1031	C103	0.825900	0.407800	0.914600
C1041	C104	0.564300	0.376640	0.395700
H511	H51	0.530900	0.347700	0.383600
C1051	C105	0.697200	0.416260	0.446600
H521	H52	0.755000	0.413300	0.467700
C1061	C106	0.549200	0.520660	0.400200
C1071	C107	0.579700	0.467230	0.404300
C1081	C108	0.588800	0.604570	0.439200
H531	H53	0.631100	0.628600	0.464100
C1091	C109	0.649200	0.372580	0.427400
C1101	C110	0.851900	0.388500	0.847800
H541	H54	0.882200	0.358300	0.858800
C1111	C111	0.443900	0.584700	0.369900
H551	H55	0.388000	0.594200	0.347700
C1121	C112	0.841300	0.382200	0.005400
C1131	C113	0.790300	0.459300	0.749000
C1141	C114	0.832100	0.414700	0.764200
H561	H56	0.847800	0.401500	0.717800
C1151	C115	0.466300	0.534000	0.366700
H571	H57	0.425100	0.509200	0.342000
C1161	C116	0.767300	0.477310	0.819600
H581	H58	0.738800	0.508100	0.810300
C1171	C117	0.767600	0.489600	0.660000
C1181	C118	0.894600	0.341500	0.038600
H591	H59	0.925300	0.329400	0.005600
C1191	C119	0.901500	0.318800	0.122200
H601	H60	0.935600	0.290500	0.144700
C1201	C120	0.489700	0.676100	0.418100
O331	O33	0.767500	0.320750	0.457000
O341	O34	0.651500	0.283540	0.454200
O351	O35	0.707600	0.520050	0.639000
O361	O36	0.896500	0.271580	0.285600
O371	O37	0.822300	0.334340	0.305200
O381	O38	0.807200	0.482620	0.609000
O391	O39	0.414700	0.685860	0.405000
O401	O40	0.545100	0.706750	0.435900
U61	U6	0.350420	0.762090	0.415830
Zn61	Zn6	0.234010	0.030010	0.499360
N211	N21	0.110100	0.056150	0.436500
N221	N22	0.163600	0.962070	0.435900
C1211	C121	0.358500	0.813500	0.259000
N231	N23	0.298900	0.902040	0.053700
C1221	C122	0.357900	0.838030	0.171900
N241	N24	0.284400	0.952280	0.900800
C1231	C123	0.028300	0.925510	0.381600
H611	H61	0.970500	0.929400	0.357200
C1241	C124	0.307100	0.880130	0.135000
H621	H62	0.277500	0.893600	0.168200
C1251	C125	0.007100	0.120770	0.406900
C1261	C126	0.192300	0.821620	0.447400
C1271	C127	0.325900	0.907800	0.914600
C1281	C128	0.064300	0.876640	0.395700
H631	H63	0.030900	0.847700	0.383600
C1291	C129	0.197200	0.916260	0.446600
H641	H64	0.255000	0.913300	0.467700
C1301	C130	0.049200	0.020660	0.400200
C1311	C131	0.079700	0.967230	0.404300
C1321	C132	0.088800	0.104570	0.439200
H651	H65	0.131100	0.128600	0.464100
C1331	C133	0.149200	0.872580	0.427400
C1341	C134	0.351900	0.888500	0.847800
H661	H66	0.382200	0.858300	0.858800
C1351	C135	0.943900	0.084700	0.369900
H671	H67	0.888000	0.094200	0.347700
C1361	C136	0.341300	0.882200	0.005400
C1371	C137	0.290300	0.959300	0.749000
C1381	C138	0.332100	0.914700	0.764200
H681	H68	0.347800	0.901500	0.717800
C1391	C139	0.966300	0.034000	0.366700
H691	H69	0.925100	0.009200	0.342000
C1401	C140	0.267300	0.977310	0.819600
H701	H70	0.238800	0.008100	0.810300
C1411	C141	0.267600	0.989600	0.660000
C1421	C142	0.394600	0.841500	0.038600
H711	H71	0.425300	0.829400	0.005600
C1431	C143	0.401500	0.818800	0.122200
H721	H72	0.435600	0.790500	0.144700
C1441	C144	0.989700	0.176100	0.418100
O411	O41	0.267500	0.820750	0.457000
O421	O42	0.151500	0.783540	0.454200
O431	O43	0.207600	0.020050	0.639000
O441	O44	0.396500	0.771580	0.285600
O451	O45	0.322300	0.834340	0.305200
O461	O46	0.307200	0.982620	0.609000
O471	O47	0.914700	0.185860	0.405000
O481	O48	0.045100	0.206750	0.435900
U71	U7	0.149580	0.262090	0.084170
Zn71	Zn7	0.265990	0.530010	0.000640
N251	N25	0.389900	0.556150	0.063500
N261	N26	0.336400	0.462070	0.064100
C1451	C145	0.141500	0.313500	0.241000
N271	N27	0.201100	0.402040	0.446300
C1461	C146	0.142100	0.338030	0.328100
N281	N28	0.215600	0.452280	0.599200
C1471	C147	0.471700	0.425510	0.118400
H731	H73	0.529500	0.429400	0.142800
C1481	C148	0.192900	0.380130	0.365000
H741	H74	0.222500	0.393600	0.331800
C1491	C149	0.492900	0.620770	0.093100
C1501	C150	0.307700	0.321620	0.052600
C1511	C151	0.174100	0.407800	0.585400
C1521	C152	0.435700	0.376640	0.104300
H751	H75	0.469100	0.347700	0.116400
C1531	C153	0.302800	0.416260	0.053400
H761	H76	0.245000	0.413300	0.032300
C1541	C154	0.450800	0.520660	0.099800
C1551	C155	0.420300	0.467230	0.095700
C1561	C156	0.411200	0.604570	0.060800
H771	H77	0.368900	0.628600	0.035900
C1571	C157	0.350800	0.372580	0.072600
C1581	C158	0.148100	0.388500	0.652200
H781	H78	0.117800	0.358300	0.641200
C1591	C159	0.556100	0.584700	0.130100
H791	H79	0.612000	0.594200	0.152300
C1601	C160	0.158700	0.382200	0.494600
C1611	C161	0.209700	0.459300	0.751000
C1621	C162	0.167900	0.414700	0.735800
H801	H80	0.152200	0.401500	0.782200
C1631	C163	0.533700	0.534000	0.133300
H811	H81	0.574900	0.509200	0.158000
C1641	C164	0.232700	0.477310	0.680400
H821	H82	0.261200	0.508100	0.689700
C1651	C165	0.232400	0.489600	0.840000
C1661	C166	0.105400	0.341500	0.461400
H831	H83	0.074700	0.329400	0.494400
C1671	C167	0.098500	0.318800	0.377800
H841	H84	0.064400	0.290500	0.355300
C1681	C168	0.510300	0.676100	0.081900
O491	O49	0.232500	0.320750	0.043000
O501	O50	0.348500	0.283540	0.045800
O511	O51	0.292400	0.520050	0.861000
O521	O52	0.103500	0.271580	0.214400
O531	O53	0.177700	0.334340	0.194800
O541	O54	0.192800	0.482620	0.891000
O551	O55	0.585300	0.685860	0.095000
O561	O56	0.454900	0.706750	0.064100
U81	U8	0.649580	0.762090	0.084170
Zn81	Zn8	0.765990	0.030010	0.000640
N291	N29	0.889900	0.056150	0.063500
N301	N30	0.836400	0.962070	0.064100
C1691	C169	0.641500	0.813500	0.241000
N311	N31	0.701100	0.902040	0.446300
C1701	C170	0.642100	0.838030	0.328100
N321	N32	0.715600	0.952280	0.599200
C1711	C171	0.971700	0.925510	0.118400
H851	H85	0.029500	0.929400	0.142800
C1721	C172	0.692900	0.880130	0.365000
H861	H86	0.722500	0.893600	0.331800
C1731	C173	0.992900	0.120770	0.093100
C1741	C174	0.807700	0.821620	0.052600
C1751	C175	0.674100	0.907800	0.585400
C1761	C176	0.935700	0.876640	0.104300
H871	H87	0.969100	0.847700	0.116400
C1771	C177	0.802800	0.916260	0.053400
H881	H88	0.745000	0.913300	0.032300
C1781	C178	0.950800	0.020660	0.099800
C1791	C179	0.920300	0.967230	0.095700
C1801	C180	0.911200	0.104570	0.060800
H891	H89	0.868900	0.128600	0.035900
C1811	C181	0.850800	0.872580	0.072600
C1821	C182	0.648100	0.888500	0.652200
H901	H90	0.617800	0.858300	0.641200
C1831	C183	0.056100	0.084700	0.130100
H911	H91	0.112000	0.094200	0.152300
C1841	C184	0.658700	0.882200	0.494600
C1851	C185	0.709700	0.959300	0.751000
C1861	C186	0.667900	0.914700	0.735800
H921	H92	0.652200	0.901500	0.782200
C1871	C187	0.033700	0.034000	0.133300
H931	H93	0.074900	0.009200	0.158000
C1881	C188	0.732700	0.977310	0.680400
H941	H94	0.761200	0.008100	0.689700
C1891	C189	0.732400	0.989600	0.840000
C1901	C190	0.605400	0.841500	0.461400
H951	H95	0.574700	0.829400	0.494400
C1911	C191	0.598500	0.818800	0.377800
H961	H96	0.564400	0.790500	0.355300
C1921	C192	0.010300	0.176100	0.081900
O571	O57	0.732500	0.820750	0.043000
O581	O58	0.848500	0.783540	0.045800
O591	O59	0.792400	0.020050	0.861000
O601	O60	0.603500	0.771580	0.214400
O611	O61	0.677700	0.834340	0.194800
O621	O62	0.692800	0.982620	0.891000
O631	O63	0.085300	0.185860	0.095000
O641	O64	0.954900	0.206750	0.064100
