data_YAJZIV_clean_PM
_symmetry_space_group_name_H-M	'P1'
_cell_length_a	18.289800
_cell_length_b	9.310200
_cell_length_c	22.202700
_cell_angle_alpha	90.000000
_cell_angle_beta	112.556000
_cell_angle_gamma	90.000000
_symmetry_Int_Tables_number 1

loop_
_symmetry_equiv_pos_as_xyz
'x,y,z'

loop_
_atom_site_label
_atom_site_type_symbol
_atom_site_fract_x
_atom_site_fract_y
_atom_site_fract_z
Dy11	Dy1	0.235010	0.801900	0.141410
S11	S1	0.195930	0.186170	0.107970
O11	O1	0.820700	0.205300	0.978100
O21	O2	0.186500	0.193600	0.040500
C11	C1	0.098700	0.191700	0.108200
C21	C2	0.889700	0.181200	0.980500
C31	C3	0.957600	0.189900	0.046300
O31	O3	0.199200	0.148500	0.258500
O41	O4	0.840900	0.373900	0.104700
O51	O5	0.902500	0.151700	0.930700
O61	O6	0.151500	0.363700	0.260700
O71	O7	0.232700	0.051500	0.138300
O81	O8	0.828200	0.143600	0.117600
C41	C4	0.086500	0.226000	0.165600
C51	C5	0.944400	0.223600	0.102500
C61	C6	0.034600	0.175600	0.050200
H11	H1	0.043700	0.153300	0.011400
C71	C7	0.865300	0.247100	0.106500
C81	C8	0.009700	0.242400	0.161000
H21	H2	0.000700	0.267900	0.199400
C91	C9	0.150600	0.247600	0.231700
O91	O9	0.236800	0.308100	0.146500
K11	K1	0.231540	0.478800	0.013960
Dy21	Dy2	0.735010	0.301900	0.141410
S21	S2	0.695930	0.686170	0.107970
O101	O10	0.320700	0.705300	0.978100
O111	O11	0.686500	0.693600	0.040500
C101	C10	0.598700	0.691700	0.108200
C111	C11	0.389700	0.681200	0.980500
C121	C12	0.457600	0.689900	0.046300
O121	O12	0.699200	0.648500	0.258500
O131	O13	0.340900	0.873900	0.104700
O141	O14	0.402500	0.651700	0.930700
O151	O15	0.651500	0.863700	0.260700
O161	O16	0.732700	0.551500	0.138300
O171	O17	0.328200	0.643600	0.117600
C131	C13	0.586500	0.726000	0.165600
C141	C14	0.444400	0.723600	0.102500
C151	C15	0.534600	0.675600	0.050200
H31	H3	0.543700	0.653300	0.011400
C161	C16	0.365300	0.747100	0.106500
C171	C17	0.509700	0.742400	0.161000
H41	H4	0.500700	0.767900	0.199400
C181	C18	0.650600	0.747600	0.231700
O181	O18	0.736800	0.808100	0.146500
K21	K2	0.731540	0.978800	0.013960
Dy31	Dy3	0.764990	0.801900	0.358590
S31	S3	0.804070	0.186170	0.392030
O191	O19	0.179300	0.205300	0.521900
O201	O20	0.813500	0.193600	0.459500
C191	C19	0.901300	0.191700	0.391800
C201	C20	0.110300	0.181200	0.519500
C211	C21	0.042400	0.189900	0.453700
O211	O21	0.800800	0.148500	0.241500
O221	O22	0.159100	0.373900	0.395300
O231	O23	0.097500	0.151700	0.569300
O241	O24	0.848500	0.363700	0.239300
O251	O25	0.767300	0.051500	0.361700
O261	O26	0.171800	0.143600	0.382400
C221	C22	0.913500	0.226000	0.334400
C231	C23	0.055600	0.223600	0.397500
C241	C24	0.965400	0.175600	0.449800
H51	H5	0.956300	0.153300	0.488600
C251	C25	0.134700	0.247100	0.393500
C261	C26	0.990300	0.242400	0.339000
H61	H6	0.999300	0.267900	0.300600
C271	C27	0.849400	0.247600	0.268300
O271	O27	0.763200	0.308100	0.353500
K31	K3	0.768460	0.478800	0.486040
Dy41	Dy4	0.264990	0.301900	0.358590
S41	S4	0.304070	0.686170	0.392030
O281	O28	0.679300	0.705300	0.521900
O291	O29	0.313500	0.693600	0.459500
C281	C28	0.401300	0.691700	0.391800
C291	C29	0.610300	0.681200	0.519500
C301	C30	0.542400	0.689900	0.453700
O301	O30	0.300800	0.648500	0.241500
O311	O31	0.659100	0.873900	0.395300
O321	O32	0.597500	0.651700	0.569300
O331	O33	0.348500	0.863700	0.239300
O341	O34	0.267300	0.551500	0.361700
O351	O35	0.671800	0.643600	0.382400
C311	C31	0.413500	0.726000	0.334400
C321	C32	0.555600	0.723600	0.397500
C331	C33	0.465400	0.675600	0.449800
H71	H7	0.456300	0.653300	0.488600
C341	C34	0.634700	0.747100	0.393500
C351	C35	0.490300	0.742400	0.339000
H81	H8	0.499300	0.767900	0.300600
C361	C36	0.349400	0.747600	0.268300
O361	O36	0.263200	0.808100	0.353500
K41	K4	0.268460	0.978800	0.486040
Dy51	Dy5	0.764990	0.198100	0.858600
S51	S5	0.804070	0.813830	0.892030
O371	O37	0.179300	0.794700	0.021900
O381	O38	0.813500	0.806400	0.959500
C371	C37	0.901300	0.808300	0.891800
C381	C38	0.110300	0.818800	0.019500
C391	C39	0.042400	0.810100	0.953700
O391	O39	0.800800	0.851500	0.741500
O401	O40	0.159100	0.626100	0.895300
O411	O41	0.097500	0.848300	0.069300
O421	O42	0.848500	0.636300	0.739300
O431	O43	0.767300	0.948500	0.861700
O441	O44	0.171800	0.856400	0.882400
C401	C40	0.913500	0.774000	0.834400
C411	C41	0.055600	0.776400	0.897500
C421	C42	0.965400	0.824400	0.949800
H91	H9	0.956300	0.846700	0.988600
C431	C43	0.134700	0.752900	0.893500
C441	C44	0.990300	0.757600	0.839000
H101	H10	0.999300	0.732100	0.800600
C451	C45	0.849400	0.752400	0.768300
O451	O45	0.763200	0.691900	0.853500
K51	K5	0.768460	0.521200	0.986040
Dy61	Dy6	0.264990	0.698100	0.858590
S61	S6	0.304070	0.313830	0.892030
O461	O46	0.679300	0.294700	0.021900
O471	O47	0.313500	0.306400	0.959500
C461	C46	0.401300	0.308300	0.891800
C471	C47	0.610300	0.318800	0.019500
C481	C48	0.542400	0.310100	0.953700
O481	O48	0.300800	0.351500	0.741500
O491	O49	0.659100	0.126100	0.895300
O501	O50	0.597500	0.348300	0.069300
O511	O51	0.348500	0.136300	0.739300
O521	O52	0.267300	0.448500	0.861700
O531	O53	0.671800	0.356400	0.882400
C491	C49	0.413500	0.274000	0.834400
C501	C50	0.555600	0.276400	0.897500
C511	C51	0.465400	0.324400	0.949800
H111	H11	0.456300	0.346700	0.988600
C521	C52	0.634700	0.252900	0.893500
C531	C53	0.490300	0.257600	0.839000
H121	H12	0.499300	0.232100	0.800600
C541	C54	0.349400	0.252400	0.768300
O541	O54	0.263200	0.191900	0.853500
K61	K6	0.268460	0.021200	0.986040
Dy71	Dy7	0.235010	0.198100	0.641400
S71	S7	0.195930	0.813830	0.607970
O551	O55	0.820700	0.794700	0.478100
O561	O56	0.186500	0.806400	0.540500
C551	C55	0.098700	0.808300	0.608200
C561	C56	0.889700	0.818800	0.480500
C571	C57	0.957600	0.810100	0.546300
O571	O57	0.199200	0.851500	0.758500
O581	O58	0.840900	0.626100	0.604700
O591	O59	0.902500	0.848300	0.430700
O601	O60	0.151500	0.636300	0.760700
O611	O61	0.232700	0.948500	0.638300
O621	O62	0.828200	0.856400	0.617600
C581	C58	0.086500	0.774000	0.665600
C591	C59	0.944400	0.776400	0.602500
C601	C60	0.034600	0.824400	0.550200
H131	H13	0.043700	0.846700	0.511400
C611	C61	0.865300	0.752900	0.606500
C621	C62	0.009700	0.757600	0.661000
H141	H14	0.000700	0.732100	0.699400
C631	C63	0.150600	0.752400	0.731700
O631	O63	0.236800	0.691900	0.646500
K71	K7	0.231540	0.521200	0.513960
Dy81	Dy8	0.735010	0.698100	0.641400
S81	S8	0.695930	0.313830	0.607970
O641	O64	0.320700	0.294700	0.478100
O651	O65	0.686500	0.306400	0.540500
C641	C64	0.598700	0.308300	0.608200
C651	C65	0.389700	0.318800	0.480500
C661	C66	0.457600	0.310100	0.546300
O661	O66	0.699200	0.351500	0.758500
O671	O67	0.340900	0.126100	0.604700
O681	O68	0.402500	0.348300	0.430700
O691	O69	0.651500	0.136300	0.760700
O701	O70	0.732700	0.448500	0.638300
O711	O71	0.328200	0.356400	0.617600
C671	C67	0.586500	0.274000	0.665600
C681	C68	0.444400	0.276400	0.602500
C691	C69	0.534600	0.324400	0.550200
H151	H15	0.543700	0.346700	0.511400
C701	C70	0.365300	0.252900	0.606500
C711	C71	0.509700	0.257600	0.661000
H161	H16	0.500700	0.232100	0.699400
C721	C72	0.650600	0.252400	0.731700
O721	O72	0.736800	0.191900	0.646500
K81	K8	0.731540	0.021200	0.513960
