data_YANBAR03_clean_PM
_symmetry_space_group_name_H-M	'P1'
_cell_length_a	11.372900
_cell_length_b	9.946300
_cell_length_c	14.511800
_cell_angle_alpha	90.000000
_cell_angle_beta	91.278300
_cell_angle_gamma	90.000000
_symmetry_Int_Tables_number 1

loop_
_symmetry_equiv_pos_as_xyz
'x,y,z'

loop_
_atom_site_label
_atom_site_type_symbol
_atom_site_fract_x
_atom_site_fract_y
_atom_site_fract_z
Co11	Co1	0.254770	0.422080	0.133530
Co21	Co2	0.239210	0.614260	0.309190
O11	O1	0.348050	0.582680	0.195740
O21	O2	0.509840	0.622100	0.115470
C11	C1	0.444560	0.642910	0.180490
H11	H1	0.468400	0.710300	0.223400
O31	O3	0.184920	0.525990	0.022970
O41	O4	0.349050	0.602060	0.957880
C21	C2	0.240980	0.599050	0.966050
H21	H2	0.195600	0.656000	0.926600
O51	O5	0.157360	0.244710	0.108350
O61	O6	0.020930	0.293860	0.999400
C31	C3	0.078000	0.214200	0.048330
H31	H3	0.061100	0.121300	0.040400
O71	O7	0.304390	0.303420	0.248370
O81	O8	0.303540	0.442430	0.370110
C41	C4	0.317970	0.330550	0.334010
H41	H4	0.341200	0.258800	0.373600
O91	O9	0.401330	0.349190	0.066360
O101	O10	0.395610	0.128630	0.099920
C51	C5	0.437970	0.228000	0.061230
H51	H5	0.504300	0.212500	0.024000
O111	O11	0.128680	0.508250	0.217470
O121	O12	0.957280	0.500740	0.139170
C61	C6	0.017320	0.517720	0.210100
H61	H6	0.976500	0.540000	0.264400
Co31	Co3	0.245230	0.922080	0.366470
Co41	Co4	0.260790	0.114260	0.190810
O131	O13	0.151950	0.082680	0.304260
O141	O14	0.990160	0.122100	0.384530
C71	C7	0.055440	0.142910	0.319510
H71	H7	0.031600	0.210300	0.276600
O151	O15	0.315080	0.025990	0.477030
O161	O16	0.150950	0.102060	0.542120
C81	C8	0.259020	0.099050	0.533950
H81	H8	0.304400	0.156000	0.573400
O171	O17	0.342640	0.744710	0.391650
O181	O18	0.479070	0.793860	0.500600
C91	C9	0.422000	0.714200	0.451670
H91	H9	0.438900	0.621300	0.459600
O191	O19	0.195610	0.803420	0.251630
O201	O20	0.196460	0.942430	0.129890
C101	C10	0.182030	0.830550	0.165990
H101	H10	0.158800	0.758800	0.126400
O211	O21	0.098670	0.849190	0.433640
O221	O22	0.104390	0.628630	0.400080
C111	C11	0.062030	0.728000	0.438770
H111	H11	0.995700	0.712500	0.476000
O231	O23	0.371320	0.008250	0.282530
O241	O24	0.542720	0.000740	0.360830
C121	C12	0.482680	0.017720	0.289900
H121	H12	0.523500	0.040000	0.235600
Co51	Co5	0.745230	0.577920	0.866470
Co61	Co6	0.760790	0.385740	0.690810
O251	O25	0.651950	0.417320	0.804260
O261	O26	0.490160	0.377900	0.884530
C131	C13	0.555440	0.357090	0.819510
H131	H13	0.531600	0.289700	0.776600
O271	O27	0.815080	0.474010	0.977030
O281	O28	0.650950	0.397940	0.042120
C141	C14	0.759020	0.400950	0.033950
H141	H14	0.804400	0.344000	0.073400
O291	O29	0.842640	0.755290	0.891650
O301	O30	0.979070	0.706140	0.000600
C151	C15	0.922000	0.785800	0.951670
H151	H15	0.938900	0.878700	0.959600
O311	O31	0.695610	0.696580	0.751630
O321	O32	0.696460	0.557570	0.629890
C161	C16	0.682030	0.669450	0.665990
H161	H16	0.658800	0.741200	0.626400
O331	O33	0.598670	0.650810	0.933640
O341	O34	0.604390	0.871370	0.900080
C171	C17	0.562030	0.772000	0.938770
H171	H17	0.495700	0.787500	0.976000
O351	O35	0.871320	0.491750	0.782530
O361	O36	0.042720	0.499260	0.860830
C181	C18	0.982680	0.482280	0.789900
H181	H18	0.023500	0.460000	0.735600
Co71	Co7	0.754770	0.077920	0.633530
Co81	Co8	0.739210	0.885740	0.809190
O371	O37	0.848050	0.917320	0.695740
O381	O38	0.009840	0.877900	0.615470
C191	C19	0.944560	0.857090	0.680490
H191	H19	0.968400	0.789700	0.723400
O391	O39	0.684920	0.974010	0.522970
O401	O40	0.849050	0.897940	0.457880
C201	C20	0.740980	0.900950	0.466050
H201	H20	0.695600	0.844000	0.426600
O411	O41	0.657360	0.255290	0.608350
O421	O42	0.520930	0.206140	0.499400
C211	C21	0.578000	0.285800	0.548330
H211	H21	0.561100	0.378700	0.540400
O431	O43	0.804390	0.196580	0.748370
O441	O44	0.803540	0.057570	0.870110
C221	C22	0.817970	0.169450	0.834010
H221	H22	0.841200	0.241200	0.873600
O451	O45	0.901330	0.150810	0.566360
O461	O46	0.895610	0.371370	0.599920
C231	C23	0.937970	0.272000	0.561230
H231	H23	0.004300	0.287500	0.524000
O471	O47	0.628680	0.991750	0.717470
O481	O48	0.457280	0.999260	0.639170
C241	C24	0.517320	0.982280	0.710100
H241	H24	0.476500	0.960000	0.764400
Co91	Co9	0.500000	0.500000	0.000000
Co101	Co10	0.000000	0.000000	0.500000
Co111	Co11	0.000000	0.500000	0.000000
Co121	Co12	0.500000	0.000000	0.500000
