data_YAPXIX_clean_PM
_symmetry_space_group_name_H-M	'P1'
_cell_length_a	21.155000
_cell_length_b	21.155000
_cell_length_c	7.663200
_cell_angle_alpha	90.000000
_cell_angle_beta	90.000000
_cell_angle_gamma	120.000000
_symmetry_Int_Tables_number 1

loop_
_symmetry_equiv_pos_as_xyz
'x,y,z'

loop_
_atom_site_label
_atom_site_type_symbol
_atom_site_fract_x
_atom_site_fract_y
_atom_site_fract_z
O11	O1	0.760100	0.361300	0.078800
O21	O2	0.758200	0.293800	0.851900
F11	F1	0.928600	0.228100	0.591600
F21	F2	0.997700	0.183800	0.530400
C11	C1	0.781100	0.323100	0.994200
C21	C2	0.837200	0.310500	0.084500
F31	F3	0.901200	0.153000	0.380300
C31	C3	0.865300	0.272900	0.997500
H11	H1	0.849100	0.255800	0.885300
C41	C4	0.914200	0.323500	0.329900
H21	H2	0.929800	0.339900	0.442900
C51	C5	0.956600	0.210100	0.462000
C61	C6	0.942700	0.286000	0.237500
C71	C7	0.862000	0.335900	0.249700
H31	H3	0.843800	0.361700	0.309200
C81	C8	0.917300	0.260200	0.073900
H41	H4	0.935000	0.234100	0.013600
O31	O3	0.638700	0.398800	0.412130
O41	O4	0.706200	0.464400	0.185230
F41	F4	0.771900	0.700500	0.924930
F51	F5	0.816200	0.813900	0.863730
C91	C9	0.676900	0.458000	0.327530
C101	C10	0.689500	0.526700	0.417830
F61	F6	0.847000	0.748200	0.713630
C111	C11	0.727100	0.592400	0.330830
H51	H5	0.744200	0.593300	0.218630
C121	C12	0.676500	0.590700	0.663230
H61	H6	0.660100	0.589900	0.776230
C131	C13	0.789900	0.746500	0.795330
C141	C14	0.714000	0.656700	0.570830
C151	C15	0.664100	0.526100	0.583030
H71	H7	0.638300	0.482100	0.642530
C161	C16	0.739800	0.657100	0.407230
H81	H8	0.765900	0.700900	0.346930
O51	O5	0.601200	0.239900	0.745470
O61	O6	0.535600	0.241800	0.518570
F71	F7	0.299500	0.071400	0.258270
F81	F8	0.186100	0.002300	0.197070
C171	C17	0.542000	0.218900	0.660870
C181	C18	0.473300	0.162800	0.751170
F91	F9	0.251800	0.098800	0.046970
C191	C19	0.407600	0.134700	0.664170
H91	H9	0.406700	0.150900	0.551970
C201	C20	0.409300	0.085800	0.996570
H101	H10	0.410100	0.070200	0.109570
C211	C21	0.253500	0.043400	0.128670
C221	C22	0.343300	0.057300	0.904170
C231	C23	0.473900	0.138000	0.916370
H111	H11	0.517900	0.156200	0.975870
C241	C24	0.342900	0.082700	0.740570
H121	H12	0.299100	0.065000	0.680270
O71	O7	0.239900	0.638700	0.078800
O81	O8	0.241800	0.706200	0.851900
F101	F10	0.071400	0.771900	0.591600
F111	F11	0.002300	0.816200	0.530400
C251	C25	0.218900	0.676900	0.994200
C261	C26	0.162800	0.689500	0.084500
F121	F12	0.098800	0.847000	0.380300
C271	C27	0.134700	0.727100	0.997500
H131	H13	0.150900	0.744200	0.885300
C281	C28	0.085800	0.676500	0.329900
H141	H14	0.070200	0.660100	0.442900
C291	C29	0.043400	0.789900	0.462000
C301	C30	0.057300	0.714000	0.237500
C311	C31	0.138000	0.664100	0.249700
H151	H15	0.156200	0.638300	0.309200
C321	C32	0.082700	0.739800	0.073900
H161	H16	0.065000	0.765900	0.013600
O91	O9	0.361300	0.601200	0.412130
O101	O10	0.293800	0.535600	0.185230
F131	F13	0.228100	0.299500	0.924930
F141	F14	0.183800	0.186100	0.863730
C331	C33	0.323100	0.542000	0.327530
C341	C34	0.310500	0.473300	0.417830
F151	F15	0.153000	0.251800	0.713630
C351	C35	0.272900	0.407600	0.330830
H171	H17	0.255800	0.406700	0.218630
C361	C36	0.323500	0.409300	0.663230
H181	H18	0.339900	0.410100	0.776230
C371	C37	0.210100	0.253500	0.795330
C381	C38	0.286000	0.343300	0.570830
C391	C39	0.335900	0.473900	0.583030
H191	H19	0.361700	0.517900	0.642530
C401	C40	0.260200	0.342900	0.407230
H201	H20	0.234100	0.299100	0.346930
O111	O11	0.398800	0.760100	0.745470
O121	O12	0.464400	0.758200	0.518570
F161	F16	0.700500	0.928600	0.258270
F171	F17	0.813900	0.997700	0.197070
C411	C41	0.458000	0.781100	0.660870
C421	C42	0.526700	0.837200	0.751170
F181	F18	0.748200	0.901200	0.046970
C431	C43	0.592400	0.865300	0.664170
H211	H21	0.593300	0.849100	0.551970
C441	C44	0.590700	0.914200	0.996570
H221	H22	0.589900	0.929800	0.109570
C451	C45	0.746500	0.956600	0.128670
C461	C46	0.656700	0.942700	0.904170
C471	C47	0.526100	0.862000	0.916370
H231	H23	0.482100	0.843800	0.975870
C481	C48	0.657100	0.917300	0.740570
H241	H24	0.700900	0.935000	0.680270
O131	O13	0.361300	0.760100	0.254530
O141	O14	0.293800	0.758200	0.481430
F191	F19	0.228100	0.928600	0.741730
F201	F20	0.183800	0.997700	0.802930
C491	C49	0.323100	0.781100	0.339130
C501	C50	0.310500	0.837200	0.248830
F211	F21	0.153000	0.901200	0.953030
C511	C51	0.272900	0.865300	0.335830
H251	H25	0.255800	0.849100	0.448030
C521	C52	0.323500	0.914200	0.003430
H261	H26	0.339900	0.929800	0.890430
C531	C53	0.210100	0.956600	0.871330
C541	C54	0.286000	0.942700	0.095830
C551	C55	0.335900	0.862000	0.083630
H271	H27	0.361700	0.843800	0.024130
C561	C56	0.260200	0.917300	0.259430
H281	H28	0.234100	0.935000	0.319730
O151	O15	0.398800	0.638700	0.921200
O161	O16	0.464400	0.706200	0.148100
F221	F22	0.700500	0.771900	0.408400
F231	F23	0.813900	0.816200	0.469600
C571	C57	0.458000	0.676900	0.005800
C581	C58	0.526700	0.689500	0.915500
F241	F24	0.748200	0.847000	0.619700
C591	C59	0.592400	0.727100	0.002500
H291	H29	0.593300	0.744200	0.114700
C601	C60	0.590700	0.676500	0.670100
H301	H30	0.589900	0.660100	0.557100
C611	C61	0.746500	0.789900	0.538000
C621	C62	0.656700	0.714000	0.762500
C631	C63	0.526100	0.664100	0.750300
H311	H31	0.482100	0.638300	0.690800
C641	C64	0.657100	0.739800	0.926100
H321	H32	0.700900	0.765900	0.986400
O171	O17	0.239900	0.601200	0.587870
O181	O18	0.241800	0.535600	0.814770
F251	F25	0.071400	0.299500	0.075070
F261	F26	0.002300	0.186100	0.136270
C651	C65	0.218900	0.542000	0.672470
C661	C66	0.162800	0.473300	0.582170
F271	F27	0.098800	0.251800	0.286370
C671	C67	0.134700	0.407600	0.669170
H331	H33	0.150900	0.406700	0.781370
C681	C68	0.085800	0.409300	0.336770
H341	H34	0.070200	0.410100	0.223770
C691	C69	0.043400	0.253500	0.204670
C701	C70	0.057300	0.343300	0.429170
C711	C71	0.138000	0.473900	0.416970
H351	H35	0.156200	0.517900	0.357470
C721	C72	0.082700	0.342900	0.592770
H361	H36	0.065000	0.299100	0.653070
O191	O19	0.638700	0.239900	0.254530
O201	O20	0.706200	0.241800	0.481430
F281	F28	0.771900	0.071400	0.741730
F291	F29	0.816200	0.002300	0.802930
C731	C73	0.676900	0.218900	0.339130
C741	C74	0.689500	0.162800	0.248830
F301	F30	0.847000	0.098800	0.953030
C751	C75	0.727100	0.134700	0.335830
H371	H37	0.744200	0.150900	0.448030
C761	C76	0.676500	0.085800	0.003430
H381	H38	0.660100	0.070200	0.890430
C771	C77	0.789900	0.043400	0.871330
C781	C78	0.714000	0.057300	0.095830
C791	C79	0.664100	0.138000	0.083630
H391	H39	0.638300	0.156200	0.024130
C801	C80	0.739800	0.082700	0.259430
H401	H40	0.765900	0.065000	0.319730
O211	O21	0.601200	0.361300	0.921200
O221	O22	0.535600	0.293800	0.148100
F311	F31	0.299500	0.228100	0.408400
F321	F32	0.186100	0.183800	0.469600
C811	C81	0.542000	0.323100	0.005800
C821	C82	0.473300	0.310500	0.915500
F331	F33	0.251800	0.153000	0.619700
C831	C83	0.407600	0.272900	0.002500
H411	H41	0.406700	0.255800	0.114700
C841	C84	0.409300	0.323500	0.670100
H421	H42	0.410100	0.339900	0.557100
C851	C85	0.253500	0.210100	0.538000
C861	C86	0.343300	0.286000	0.762500
C871	C87	0.473900	0.335900	0.750300
H431	H43	0.517900	0.361700	0.690800
C881	C88	0.342900	0.260200	0.926100
H441	H44	0.299100	0.234100	0.986400
O231	O23	0.760100	0.398800	0.587870
O241	O24	0.758200	0.464400	0.814770
F341	F34	0.928600	0.700500	0.075070
F351	F35	0.997700	0.813900	0.136270
C891	C89	0.781100	0.458000	0.672470
C901	C90	0.837200	0.526700	0.582170
F361	F36	0.901200	0.748200	0.286370
C911	C91	0.865300	0.592400	0.669170
H451	H45	0.849100	0.593300	0.781370
C921	C92	0.914200	0.590700	0.336770
H461	H46	0.929800	0.589900	0.223770
C931	C93	0.956600	0.746500	0.204670
C941	C94	0.942700	0.656700	0.429170
C951	C95	0.862000	0.526100	0.416970
H471	H47	0.843800	0.482100	0.357470
C961	C96	0.917300	0.657100	0.592770
H481	H48	0.935000	0.700900	0.653070
Zn11	Zn1	0.700230	0.400460	0.000000
Zn21	Zn2	0.599540	0.299770	0.333330
Zn31	Zn3	0.700230	0.299770	0.666670
Zn41	Zn4	0.299770	0.599540	0.000000
Zn51	Zn5	0.400460	0.700230	0.333330
Zn61	Zn6	0.299770	0.700230	0.666670
C971	C97	0.000000	0.273100	0.333330
C981	C98	0.726900	0.726900	0.666670
C991	C99	0.273100	0.000000	0.000000
C1001	C100	0.000000	0.726900	0.333330
C1011	C101	0.273100	0.273100	0.666670
C1021	C102	0.726900	0.000000	0.000000
