data_YAPYUK_clean_PM
_symmetry_space_group_name_H-M	'P1'
_cell_length_a	7.362700
_cell_length_b	12.330000
_cell_length_c	13.929000
_cell_angle_alpha	83.439000
_cell_angle_beta	81.485000
_cell_angle_gamma	72.674000
_symmetry_Int_Tables_number 1

loop_
_symmetry_equiv_pos_as_xyz
'x,y,z'

loop_
_atom_site_label
_atom_site_type_symbol
_atom_site_fract_x
_atom_site_fract_y
_atom_site_fract_z
Co11	Co1	0.455220	0.789900	0.959690
Co21	Co2	0.915810	0.936280	0.751840
Co31	Co3	0.544780	0.210100	0.040310
Co41	Co4	0.084190	0.063720	0.248160
H11	H1	0.924200	0.574400	0.698200
H21	H2	0.988500	0.370400	0.779400
H31	H3	0.296900	0.601200	0.667500
H41	H4	0.543200	0.220700	0.575100
H51	H5	0.541200	0.454800	0.601100
H61	H6	0.259700	0.312500	0.511000
H71	H7	0.207000	0.625000	0.980000
H81	H8	0.751000	0.568000	0.980000
H91	H9	0.006000	0.815000	0.559000
H101	H10	0.931000	0.133000	0.600000
H111	H11	0.075800	0.425600	0.301800
H121	H12	0.011500	0.629600	0.220600
H131	H13	0.703100	0.398800	0.332500
H141	H14	0.456800	0.779300	0.424900
H151	H15	0.458800	0.545200	0.398900
H161	H16	0.740300	0.687500	0.489000
H171	H17	0.793000	0.375000	0.020000
H181	H18	0.249000	0.432000	0.020000
H191	H19	0.994000	0.185000	0.441000
H201	H20	0.069000	0.867000	0.400000
C11	C1	0.760500	0.498800	0.643500
C21	C2	0.095500	0.351200	0.639100
C31	C3	0.797700	0.579500	0.692200
C41	C4	0.098900	0.338300	0.738500
C51	C5	0.652300	0.668400	0.732900
C61	C6	0.267600	0.277100	0.778700
C71	C7	0.461200	0.673800	0.726000
C81	C8	0.434200	0.235000	0.717700
C91	C9	0.423100	0.595200	0.674900
C101	C10	0.431500	0.249100	0.616400
C111	C11	0.569500	0.507800	0.634400
C121	C12	0.262100	0.305300	0.578000
C131	C13	0.707000	0.758800	0.776300
C141	C14	0.262900	0.260800	0.888600
C151	C15	0.294800	0.766500	0.769100
C161	C16	0.627500	0.170700	0.751200
C171	C17	0.912900	0.406300	0.593600
C181	C18	0.330200	0.573700	0.992800
C191	C19	0.649300	0.542300	0.989100
C201	C20	0.999400	0.895000	0.538200
C211	C21	0.962600	0.082800	0.560100
C221	C22	0.239500	0.501200	0.356500
C231	C23	0.904500	0.648800	0.360900
C241	C24	0.202300	0.420500	0.307800
C251	C25	0.901100	0.661700	0.261500
C261	C26	0.347700	0.331600	0.267100
C271	C27	0.732400	0.722900	0.221300
C281	C28	0.538800	0.326200	0.274000
C291	C29	0.565800	0.765000	0.282300
C301	C30	0.576900	0.404800	0.325100
C311	C31	0.568500	0.750900	0.383600
C321	C32	0.430500	0.492200	0.365600
C331	C33	0.737900	0.694700	0.422000
C341	C34	0.293000	0.241200	0.223700
C351	C35	0.737100	0.739200	0.111400
C361	C36	0.705200	0.233500	0.230900
C371	C37	0.372500	0.829300	0.248800
C381	C38	0.087100	0.593700	0.406400
C391	C39	0.669800	0.426300	0.007200
C401	C40	0.350700	0.457700	0.010900
C411	C41	0.000600	0.105000	0.461800
C421	C42	0.037400	0.917200	0.439900
N11	N1	0.480600	0.616500	0.982900
N21	N2	0.960300	0.978000	0.599400
N31	N3	0.519400	0.383500	0.017100
N41	N4	0.039700	0.022000	0.400600
O11	O1	0.762900	0.829100	0.718900
O21	O2	0.108500	0.291200	0.941100
O31	O3	0.705900	0.755100	0.867800
O41	O4	0.423800	0.213400	0.918500
O51	O5	0.304900	0.809500	0.844500
O61	O6	0.745200	0.222700	0.758600
O71	O7	0.149800	0.797300	0.727100
O81	O8	0.659600	0.063000	0.762900
O91	O9	0.889800	0.376000	0.517200
O101	O10	0.237100	0.170900	0.281100
O111	O11	0.891500	0.708800	0.058900
O121	O12	0.294100	0.244900	0.132200
O131	O13	0.576200	0.786600	0.081500
O141	O14	0.695100	0.190500	0.155500
O151	O15	0.254800	0.777300	0.241400
O161	O16	0.850200	0.202700	0.272900
O171	O17	0.340400	0.937000	0.237100
O181	O18	0.110200	0.624000	0.482800
