data_YAQCEY_clean_PM
_symmetry_space_group_name_H-M	'P1'
_cell_length_a	18.789200
_cell_length_b	23.230700
_cell_length_c	21.135500
_cell_angle_alpha	90.000000
_cell_angle_beta	95.085000
_cell_angle_gamma	90.000000
_symmetry_Int_Tables_number 1

loop_
_symmetry_equiv_pos_as_xyz
'x,y,z'

loop_
_atom_site_label
_atom_site_type_symbol
_atom_site_fract_x
_atom_site_fract_y
_atom_site_fract_z
Mn11	Mn1	0.161970	0.881380	0.343160
Mn21	Mn2	0.268850	0.878380	0.169020
Mn31	Mn3	0.206850	0.006200	0.246930
Mn41	Mn4	0.707250	0.749360	0.258950
Mn51	Mn5	0.662570	0.882310	0.341370
Mn61	Mn6	0.769020	0.867900	0.167340
O11	O1	0.277410	0.895410	0.344850
O21	O2	0.294600	0.941140	0.253730
O31	O3	0.261100	0.809270	0.231940
O41	O4	0.172500	0.800610	0.295970
O51	O5	0.653370	0.864430	0.157460
O61	O6	0.639350	0.828040	0.254150
O71	O7	0.742250	0.446350	0.283440
O81	O8	0.827750	0.456910	0.215760
O91	O9	0.153490	0.688650	0.905190
O101	O10	0.221100	0.752560	0.858110
O111	O11	0.206400	0.012830	0.146480
O121	O12	0.280700	0.948390	0.108170
O131	O13	0.777020	0.867230	0.344290
O141	O14	0.795570	0.812910	0.259140
O151	O15	0.137230	0.928960	0.251530
O161	O16	0.152800	0.883770	0.159720
O171	O17	0.195100	0.763860	0.660040
O181	O18	0.277800	0.710580	0.617210
O191	O19	0.224200	0.015840	0.346310
O201	O20	0.154900	0.957550	0.399180
N11	N1	0.544800	0.902750	0.344300
N21	N2	0.243200	0.597000	0.252400
N31	N3	0.387400	0.861280	0.168800
N41	N4	0.760100	0.659560	0.265000
N51	N5	0.247200	0.820900	0.081500
N61	N6	0.241000	0.087800	0.929000
N71	N7	0.044300	0.861760	0.346300
N81	N8	0.887200	0.883300	0.169400
N91	N9	0.185600	0.836070	0.436400
N101	N10	0.301900	0.064100	0.571500
C11	C1	0.514400	0.945600	0.307000
C21	C2	0.441200	0.952100	0.295100
C31	C3	0.499800	0.866700	0.371000
C41	C4	0.426300	0.871700	0.361900
C51	C5	0.395800	0.913900	0.322000
C61	C6	0.316200	0.916900	0.306900
C71	C7	0.208700	0.621600	0.297900
C81	C8	0.197100	0.679700	0.301800
C91	C9	0.268100	0.632800	0.209000
C101	C10	0.261400	0.691500	0.211100
C111	C11	0.225900	0.716200	0.258700
C121	C12	0.219000	0.780700	0.262400
C131	C13	0.419000	0.820600	0.206700
C141	C14	0.492000	0.814900	0.218000
C151	C15	0.431000	0.896200	0.138500
C161	C16	0.503000	0.892100	0.145400
C171	C17	0.535700	0.851900	0.187000
C181	C18	0.615500	0.848200	0.200200
C191	C19	0.795300	0.635500	0.218800
C201	C20	0.805700	0.576600	0.214700
C211	C21	0.736100	0.623900	0.308100
C221	C22	0.743100	0.565700	0.306200
C231	C23	0.778000	0.540600	0.258000
C241	C24	0.783900	0.475700	0.252300
C251	C25	0.194300	0.782000	0.075700
C261	C26	0.174600	0.752300	0.020400
C271	C27	0.283100	0.830100	0.030600
C281	C28	0.267700	0.802500	0.973500
C291	C29	0.211700	0.762900	0.967800
C301	C30	0.193500	0.732200	0.905200
C311	C31	0.198500	0.103500	0.975100
C321	C32	0.198700	0.074800	0.031800
C331	C33	0.285000	0.041600	0.941200
C341	C34	0.286800	0.011000	0.996700
C351	C35	0.242600	0.027000	0.043400
C361	C36	0.243100	0.993500	0.103900
C371	C37	0.997700	0.900100	0.367700
C381	C38	0.924800	0.894000	0.359200
C391	C39	0.015400	0.814300	0.316300
C401	C40	0.942700	0.806600	0.303900
C411	C41	0.895600	0.847300	0.325200
C421	C42	0.816600	0.842100	0.309200
C431	C43	0.931100	0.846500	0.144100
C441	C44	0.005000	0.852400	0.150400
C451	C45	0.916900	0.928400	0.202100
C461	C46	0.989600	0.936700	0.213100
C471	C47	0.034800	0.897800	0.187200
C481	C48	0.150900	0.850000	0.487400
C491	C49	0.164400	0.823400	0.546200
C501	C50	0.237100	0.794900	0.444700
C511	C51	0.253800	0.767000	0.500900
C521	C52	0.215900	0.780500	0.552900
C531	C53	0.231300	0.749000	0.614900
C541	C54	0.326100	0.077400	0.514100
C551	C55	0.294600	0.056800	0.457800
C561	C56	0.246600	0.027700	0.571200
C571	C57	0.211800	0.005500	0.516100
C581	C58	0.236500	0.019500	0.457400
C591	C59	0.201200	0.995200	0.396300
C601	C60	0.109000	0.903900	0.197700
Mn71	Mn7	0.338030	0.381380	0.156840
Mn81	Mn8	0.231150	0.378380	0.330980
Mn91	Mn9	0.293150	0.506200	0.253070
Mn101	Mn10	0.792750	0.249360	0.241050
Mn111	Mn11	0.837430	0.382310	0.158630
Mn121	Mn12	0.730980	0.367900	0.332660
O211	O21	0.222590	0.395410	0.155150
O221	O22	0.205400	0.441140	0.246270
O231	O23	0.238900	0.309270	0.268060
O241	O24	0.327500	0.300610	0.204030
O251	O25	0.846630	0.364430	0.342540
O261	O26	0.860650	0.328040	0.245850
O271	O27	0.757750	0.946350	0.216560
O281	O28	0.672250	0.956910	0.284240
O291	O29	0.346510	0.188650	0.594810
O301	O30	0.278900	0.252560	0.641890
O311	O31	0.293600	0.512830	0.353520
O321	O32	0.219300	0.448390	0.391830
O331	O33	0.722980	0.367230	0.155710
O341	O34	0.704430	0.312910	0.240860
O351	O35	0.362770	0.428960	0.248470
O361	O36	0.347200	0.383770	0.340280
O371	O37	0.304900	0.263860	0.839960
O381	O38	0.222200	0.210580	0.882790
O391	O39	0.275800	0.515840	0.153690
O401	O40	0.345100	0.457550	0.100820
N111	N11	0.955200	0.402750	0.155700
N121	N12	0.256800	0.097000	0.247600
N131	N13	0.112600	0.361280	0.331200
N141	N14	0.739900	0.159560	0.235000
N151	N15	0.252800	0.320900	0.418500
N161	N16	0.259000	0.587800	0.571000
N171	N17	0.455700	0.361760	0.153700
N181	N18	0.612800	0.383300	0.330600
N191	N19	0.314400	0.336070	0.063600
N201	N20	0.198100	0.564100	0.928500
C611	C61	0.985600	0.445600	0.193000
C621	C62	0.058800	0.452100	0.204900
C631	C63	0.000200	0.366700	0.129000
C641	C64	0.073700	0.371700	0.138100
C651	C65	0.104200	0.413900	0.178000
C661	C66	0.183800	0.416900	0.193100
C671	C67	0.291300	0.121600	0.202100
C681	C68	0.302900	0.179700	0.198200
C691	C69	0.231900	0.132800	0.291000
C701	C70	0.238600	0.191500	0.288900
C711	C71	0.274100	0.216200	0.241300
C721	C72	0.281000	0.280700	0.237600
C731	C73	0.081000	0.320600	0.293300
C741	C74	0.008000	0.314900	0.282000
C751	C75	0.069000	0.396200	0.361500
C761	C76	0.997000	0.392100	0.354600
C771	C77	0.964300	0.351900	0.313000
C781	C78	0.884500	0.348200	0.299800
C791	C79	0.704700	0.135500	0.281200
C801	C80	0.694300	0.076600	0.285300
C811	C81	0.763900	0.123900	0.191900
C821	C82	0.756900	0.065700	0.193800
C831	C83	0.722000	0.040600	0.242000
C841	C84	0.716100	0.975700	0.247700
C851	C85	0.305700	0.282000	0.424300
C861	C86	0.325400	0.252300	0.479600
C871	C87	0.216900	0.330100	0.469400
C881	C88	0.232300	0.302500	0.526500
C891	C89	0.288300	0.262900	0.532200
C901	C90	0.306500	0.232200	0.594800
C911	C91	0.301500	0.603500	0.524900
C921	C92	0.301300	0.574800	0.468200
C931	C93	0.215000	0.541600	0.558800
C941	C94	0.213200	0.511000	0.503300
C951	C95	0.257400	0.527000	0.456600
C961	C96	0.256900	0.493500	0.396100
C971	C97	0.502300	0.400100	0.132300
C981	C98	0.575200	0.394000	0.140800
C991	C99	0.484600	0.314300	0.183700
C1001	C100	0.557300	0.306600	0.196100
C1011	C101	0.604400	0.347300	0.174800
C1021	C102	0.683400	0.342100	0.190800
C1031	C103	0.568900	0.346500	0.355900
C1041	C104	0.495000	0.352400	0.349600
C1051	C105	0.583100	0.428400	0.297900
C1061	C106	0.510400	0.436700	0.286900
C1071	C107	0.465200	0.397800	0.312800
C1081	C108	0.349100	0.350000	0.012600
C1091	C109	0.335600	0.323400	0.953800
C1101	C110	0.262900	0.294900	0.055300
C1111	C111	0.246200	0.267000	0.999100
C1121	C112	0.284100	0.280500	0.947100
C1131	C113	0.268700	0.249000	0.885100
C1141	C114	0.173900	0.577400	0.985900
C1151	C115	0.205400	0.556800	0.042200
C1161	C116	0.253400	0.527700	0.928800
C1171	C117	0.288200	0.505500	0.983900
C1181	C118	0.263500	0.519500	0.042600
C1191	C119	0.298800	0.495200	0.103700
C1201	C120	0.391000	0.403900	0.302300
Mn131	Mn13	0.838030	0.118620	0.656840
Mn141	Mn14	0.731150	0.121620	0.830980
Mn151	Mn15	0.793150	0.993800	0.753070
Mn161	Mn16	0.292750	0.250640	0.741050
Mn171	Mn17	0.337430	0.117690	0.658630
Mn181	Mn18	0.230980	0.132100	0.832660
O411	O41	0.722590	0.104590	0.655150
O421	O42	0.705400	0.058860	0.746270
O431	O43	0.738900	0.190730	0.768060
O441	O44	0.827500	0.199390	0.704030
O451	O45	0.346630	0.135570	0.842540
O461	O46	0.360650	0.171960	0.745850
O471	O47	0.257750	0.553650	0.716560
O481	O48	0.172250	0.543090	0.784240
O491	O49	0.846510	0.311350	0.094810
O501	O50	0.778900	0.247440	0.141890
O511	O51	0.793600	0.987170	0.853520
O521	O52	0.719300	0.051610	0.891830
O531	O53	0.222980	0.132770	0.655710
O541	O54	0.204430	0.187090	0.740860
O551	O55	0.862770	0.071040	0.748470
O561	O56	0.847200	0.116230	0.840280
O571	O57	0.804900	0.236140	0.339960
O581	O58	0.722200	0.289420	0.382790
O591	O59	0.775800	0.984160	0.653690
O601	O60	0.845100	0.042450	0.600820
N211	N21	0.455200	0.097250	0.655700
N221	N22	0.756800	0.403000	0.747600
N231	N23	0.612600	0.138720	0.831200
N241	N24	0.239900	0.340440	0.735000
N251	N25	0.752800	0.179100	0.918500
N261	N26	0.759000	0.912200	0.071000
N271	N27	0.955700	0.138240	0.653700
N281	N28	0.112800	0.116700	0.830600
N291	N29	0.814400	0.163930	0.563600
N301	N30	0.698100	0.935900	0.428500
C1211	C121	0.485600	0.054400	0.693000
C1221	C122	0.558800	0.047900	0.704900
C1231	C123	0.500200	0.133300	0.629000
C1241	C124	0.573700	0.128300	0.638100
C1251	C125	0.604200	0.086100	0.678000
C1261	C126	0.683800	0.083100	0.693100
C1271	C127	0.791300	0.378400	0.702100
C1281	C128	0.802900	0.320300	0.698200
C1291	C129	0.731900	0.367200	0.791000
C1301	C130	0.738600	0.308500	0.788900
C1311	C131	0.774100	0.283800	0.741300
C1321	C132	0.781000	0.219300	0.737600
C1331	C133	0.581000	0.179400	0.793300
C1341	C134	0.508000	0.185100	0.782000
C1351	C135	0.569000	0.103800	0.861500
C1361	C136	0.497000	0.107900	0.854600
C1371	C137	0.464300	0.148100	0.813000
C1381	C138	0.384500	0.151800	0.799800
C1391	C139	0.204700	0.364500	0.781200
C1401	C140	0.194300	0.423400	0.785300
C1411	C141	0.263900	0.376100	0.691900
C1421	C142	0.256900	0.434300	0.693800
C1431	C143	0.222000	0.459400	0.742000
C1441	C144	0.216100	0.524300	0.747700
C1451	C145	0.805700	0.218000	0.924300
C1461	C146	0.825400	0.247700	0.979600
C1471	C147	0.716900	0.169900	0.969400
C1481	C148	0.732300	0.197500	0.026500
C1491	C149	0.788300	0.237100	0.032200
C1501	C150	0.806500	0.267800	0.094800
C1511	C151	0.801500	0.896500	0.024900
C1521	C152	0.801300	0.925200	0.968200
C1531	C153	0.715000	0.958400	0.058800
C1541	C154	0.713200	0.989000	0.003300
C1551	C155	0.757400	0.973000	0.956600
C1561	C156	0.756900	0.006500	0.896100
C1571	C157	0.002300	0.099900	0.632300
C1581	C158	0.075200	0.106000	0.640800
C1591	C159	0.984600	0.185700	0.683700
C1601	C160	0.057300	0.193400	0.696100
C1611	C161	0.104400	0.152700	0.674800
C1621	C162	0.183400	0.157900	0.690800
C1631	C163	0.068900	0.153500	0.855900
C1641	C164	0.995000	0.147600	0.849600
C1651	C165	0.083100	0.071600	0.797900
C1661	C166	0.010400	0.063300	0.786900
C1671	C167	0.965200	0.102200	0.812800
C1681	C168	0.849100	0.150000	0.512600
C1691	C169	0.835600	0.176600	0.453800
C1701	C170	0.762900	0.205100	0.555300
C1711	C171	0.746200	0.233000	0.499100
C1721	C172	0.784100	0.219500	0.447100
C1731	C173	0.768700	0.251000	0.385100
C1741	C174	0.673900	0.922600	0.485900
C1751	C175	0.705400	0.943200	0.542200
C1761	C176	0.753400	0.972300	0.428800
C1771	C177	0.788200	0.994500	0.483900
C1781	C178	0.763500	0.980500	0.542600
C1791	C179	0.798800	0.004800	0.603700
C1801	C180	0.891000	0.096100	0.802300
Mn191	Mn19	0.661970	0.618620	0.843160
Mn201	Mn20	0.768850	0.621620	0.669020
Mn211	Mn21	0.706850	0.493800	0.746930
Mn221	Mn22	0.207250	0.750640	0.758950
Mn231	Mn23	0.162570	0.617690	0.841370
Mn241	Mn24	0.269020	0.632100	0.667340
O611	O61	0.777410	0.604590	0.844850
O621	O62	0.794600	0.558860	0.753730
O631	O63	0.761100	0.690730	0.731940
O641	O64	0.672500	0.699390	0.795970
O651	O65	0.153370	0.635570	0.657460
O661	O66	0.139350	0.671960	0.754150
O671	O67	0.242250	0.053650	0.783440
O681	O68	0.327750	0.043090	0.715760
O691	O69	0.653490	0.811350	0.405190
O701	O70	0.721100	0.747440	0.358110
O711	O71	0.706400	0.487170	0.646480
O721	O72	0.780700	0.551610	0.608170
O731	O73	0.277020	0.632770	0.844290
O741	O74	0.295570	0.687090	0.759140
O751	O75	0.637230	0.571040	0.751530
O761	O76	0.652800	0.616230	0.659720
O771	O77	0.695100	0.736140	0.160040
O781	O78	0.777800	0.789420	0.117210
O791	O79	0.724200	0.484160	0.846310
O801	O80	0.654900	0.542450	0.899180
N311	N31	0.044800	0.597250	0.844300
N321	N32	0.743200	0.903000	0.752400
N331	N33	0.887400	0.638720	0.668800
N341	N34	0.260100	0.840440	0.765000
N351	N35	0.747200	0.679100	0.581500
N361	N36	0.741000	0.412200	0.429000
N371	N37	0.544300	0.638240	0.846300
N381	N38	0.387200	0.616700	0.669400
N391	N39	0.685600	0.663930	0.936400
N401	N40	0.801900	0.435900	0.071500
C1811	C181	0.014400	0.554400	0.807000
C1821	C182	0.941200	0.547900	0.795100
C1831	C183	0.999800	0.633300	0.871000
C1841	C184	0.926300	0.628300	0.861900
C1851	C185	0.895800	0.586100	0.822000
C1861	C186	0.816200	0.583100	0.806900
C1871	C187	0.708700	0.878400	0.797900
C1881	C188	0.697100	0.820300	0.801800
C1891	C189	0.768100	0.867200	0.709000
C1901	C190	0.761400	0.808500	0.711100
C1911	C191	0.725900	0.783800	0.758700
C1921	C192	0.719000	0.719300	0.762400
C1931	C193	0.919000	0.679400	0.706700
C1941	C194	0.992000	0.685100	0.718000
C1951	C195	0.931000	0.603800	0.638500
C1961	C196	0.003000	0.607900	0.645400
C1971	C197	0.035700	0.648100	0.687000
C1981	C198	0.115500	0.651800	0.700200
C1991	C199	0.295300	0.864500	0.718800
C2001	C200	0.305700	0.923400	0.714700
C2011	C201	0.236100	0.876100	0.808100
C2021	C202	0.243100	0.934300	0.806200
C2031	C203	0.278000	0.959400	0.758000
C2041	C204	0.283900	0.024300	0.752300
C2051	C205	0.694300	0.718000	0.575700
C2061	C206	0.674600	0.747700	0.520400
C2071	C207	0.783100	0.669900	0.530600
C2081	C208	0.767700	0.697500	0.473500
C2091	C209	0.711700	0.737100	0.467800
C2101	C210	0.693500	0.767800	0.405200
C2111	C211	0.698500	0.396500	0.475100
C2121	C212	0.698700	0.425200	0.531800
C2131	C213	0.785000	0.458400	0.441200
C2141	C214	0.786800	0.489000	0.496700
C2151	C215	0.742600	0.473000	0.543400
C2161	C216	0.743100	0.506500	0.603900
C2171	C217	0.497700	0.599900	0.867700
C2181	C218	0.424800	0.606000	0.859200
C2191	C219	0.515400	0.685700	0.816300
C2201	C220	0.442700	0.693400	0.803900
C2211	C221	0.395600	0.652700	0.825200
C2221	C222	0.316600	0.657900	0.809200
C2231	C223	0.431100	0.653500	0.644100
C2241	C224	0.505000	0.647600	0.650400
C2251	C225	0.416900	0.571600	0.702100
C2261	C226	0.489600	0.563300	0.713100
C2271	C227	0.534800	0.602200	0.687200
C2281	C228	0.650900	0.650000	0.987400
C2291	C229	0.664400	0.676600	0.046200
C2301	C230	0.737100	0.705100	0.944700
C2311	C231	0.753800	0.733000	0.000900
C2321	C232	0.715900	0.719500	0.052900
C2331	C233	0.731300	0.751000	0.114900
C2341	C234	0.826100	0.422600	0.014100
C2351	C235	0.794600	0.443200	0.957800
C2361	C236	0.746600	0.472300	0.071200
C2371	C237	0.711800	0.494500	0.016100
C2381	C238	0.736500	0.480500	0.957400
C2391	C239	0.701200	0.504800	0.896300
C2401	C240	0.609000	0.596100	0.697700
