data_YARSIV_clean_PM
_symmetry_space_group_name_H-M	'P1'
_cell_length_a	12.030000
_cell_length_b	12.854200
_cell_length_c	12.854200
_cell_angle_alpha	108.011000
_cell_angle_beta	106.135000
_cell_angle_gamma	106.135000
_symmetry_Int_Tables_number 1

loop_
_symmetry_equiv_pos_as_xyz
'x,y,z'

loop_
_atom_site_label
_atom_site_type_symbol
_atom_site_fract_x
_atom_site_fract_y
_atom_site_fract_z
Zn11	Zn1	0.990480	0.254810	0.488770
Zn21	Zn2	0.509520	0.511230	0.745190
Zn31	Zn3	0.750000	0.780270	0.219730
H11	H1	0.684000	0.335400	0.182600
H21	H2	0.801000	0.449900	0.914100
H31	H3	0.975000	0.240400	0.241600
H41	H4	0.919000	0.485100	0.612900
H51	H5	0.962000	0.239700	0.706300
H61	H6	0.770000	0.417800	0.074200
H71	H7	0.749000	0.319000	0.381000
H81	H8	0.868000	0.504400	0.793600
H91	H9	0.930000	0.188000	0.036000
H101	H10	0.974000	0.226000	0.880000
H111	H11	0.816000	0.817400	0.664600
H121	H12	0.699000	0.085900	0.550100
H131	H13	0.525000	0.758400	0.759600
H141	H14	0.581000	0.387100	0.514900
H151	H15	0.538000	0.293700	0.760300
H161	H16	0.730000	0.925800	0.582200
H171	H17	0.751000	0.619000	0.681000
H181	H18	0.632000	0.206400	0.495600
H191	H19	0.570000	0.964000	0.812000
H201	H20	0.526000	0.120000	0.774000
C11	C1	0.918900	0.441080	0.658920
C21	C2	0.944900	0.302950	0.708850
C31	C3	0.751600	0.313700	0.221500
C41	C4	0.828100	0.008490	0.385910
C51	C5	0.846800	0.299850	0.069750
C61	C6	0.927800	0.012170	0.330630
C71	C7	0.909700	0.260690	0.249510
C81	C8	0.888800	0.342610	0.884390
C91	C9	0.807300	0.377620	0.034780
C101	C10	0.929200	0.263050	0.919350
C111	C11	0.906100	0.240810	0.011790
C121	C12	0.827600	0.398520	0.941080
C131	C13	0.893900	0.454870	0.756330
C141	C14	0.783600	0.303800	0.325000
C151	C15	0.581100	0.341080	0.558920
C161	C16	0.555100	0.291150	0.697050
C171	C17	0.748400	0.778500	0.686300
C181	C18	0.671900	0.614090	0.991510
C191	C19	0.653200	0.930250	0.700150
C201	C20	0.572200	0.669370	0.987830
C211	C21	0.590300	0.750490	0.739310
C221	C22	0.611200	0.115610	0.657390
C231	C23	0.692700	0.965220	0.622380
C241	C24	0.570800	0.080650	0.736950
C251	C25	0.593900	0.988210	0.759190
C261	C26	0.672400	0.058920	0.601480
C271	C27	0.606100	0.243670	0.545130
C281	C28	0.716400	0.675000	0.696200
C291	C29	0.250000	0.343400	0.656600
C301	C30	0.250000	0.417700	0.582300
N11	N1	0.951700	0.345440	0.629360
N21	N2	0.883300	0.270290	0.343310
N31	N3	0.833700	0.286350	0.172650
N41	N4	0.909700	0.365590	0.788010
N51	N5	0.548300	0.370640	0.654560
N61	N6	0.616700	0.656690	0.729710
N71	N7	0.666300	0.827350	0.713650
N81	N8	0.590300	0.211990	0.634410
O11	O1	0.909800	0.916280	0.250040
O21	O2	0.735700	0.911760	0.343800
O31	O3	0.848700	0.102170	0.467370
O41	O4	0.016300	0.109920	0.369620
O51	O5	0.590200	0.749960	0.083720
O61	O6	0.764300	0.656200	0.088240
O71	O7	0.651300	0.532630	0.897830
O81	O8	0.483700	0.630380	0.890080
O91	O9	0.147500	0.389580	0.501040
O101	O10	0.149000	0.260850	0.631310
O111	O11	0.352500	0.498960	0.610420
O121	O12	0.351000	0.368690	0.739150
Zn41	Zn4	0.009520	0.745190	0.511230
Zn51	Zn5	0.490480	0.488770	0.254810
Zn61	Zn6	0.250000	0.219730	0.780270
H211	H21	0.316000	0.664600	0.817400
H221	H22	0.199000	0.550100	0.085900
H231	H23	0.025000	0.759600	0.758400
H241	H24	0.081000	0.514900	0.387100
H251	H25	0.038000	0.760300	0.293700
H261	H26	0.230000	0.582200	0.925800
H271	H27	0.251000	0.681000	0.619000
H281	H28	0.132000	0.495600	0.206400
H291	H29	0.070000	0.812000	0.964000
H301	H30	0.026000	0.774000	0.120000
H311	H31	0.184000	0.182600	0.335400
H321	H32	0.301000	0.914100	0.449900
H331	H33	0.475000	0.241600	0.240400
H341	H34	0.419000	0.612900	0.485100
H351	H35	0.462000	0.706300	0.239700
H361	H36	0.270000	0.074200	0.417800
H371	H37	0.249000	0.381000	0.319000
H381	H38	0.368000	0.793600	0.504400
H391	H39	0.430000	0.036000	0.188000
H401	H40	0.474000	0.880000	0.226000
C311	C31	0.081100	0.558920	0.341080
C321	C32	0.055100	0.697050	0.291150
C331	C33	0.248400	0.686300	0.778500
C341	C34	0.171900	0.991510	0.614090
C351	C35	0.153200	0.700150	0.930250
C361	C36	0.072200	0.987830	0.669370
C371	C37	0.090300	0.739310	0.750490
C381	C38	0.111200	0.657390	0.115610
C391	C39	0.192700	0.622380	0.965220
C401	C40	0.070800	0.736950	0.080650
C411	C41	0.093900	0.759190	0.988210
C421	C42	0.172400	0.601480	0.058920
C431	C43	0.106100	0.545130	0.243670
C441	C44	0.216400	0.696200	0.675000
C451	C45	0.418900	0.658920	0.441080
C461	C46	0.444900	0.708850	0.302950
C471	C47	0.251600	0.221500	0.313700
C481	C48	0.328100	0.385910	0.008490
C491	C49	0.346800	0.069750	0.299850
C501	C50	0.427800	0.330630	0.012170
C511	C51	0.409700	0.249510	0.260690
C521	C52	0.388800	0.884390	0.342610
C531	C53	0.307300	0.034780	0.377620
C541	C54	0.429200	0.919350	0.263050
C551	C55	0.406100	0.011790	0.240810
C561	C56	0.327600	0.941080	0.398520
C571	C57	0.393900	0.756330	0.454870
C581	C58	0.283600	0.325000	0.303800
C591	C59	0.750000	0.656600	0.343400
C601	C60	0.750000	0.582300	0.417700
N91	N9	0.048300	0.654560	0.370640
N101	N10	0.116700	0.729710	0.656690
N111	N11	0.166300	0.713650	0.827350
N121	N12	0.090300	0.634410	0.211990
N131	N13	0.451700	0.629360	0.345440
N141	N14	0.383300	0.343310	0.270290
N151	N15	0.333700	0.172650	0.286350
N161	N16	0.409700	0.788010	0.365590
O131	O13	0.852500	0.610420	0.498960
O141	O14	0.851000	0.739150	0.368690
O151	O15	0.647500	0.501040	0.389580
O161	O16	0.649000	0.631310	0.260850
O171	O17	0.090200	0.083720	0.749960
O181	O18	0.264300	0.088240	0.656200
O191	O19	0.151300	0.897830	0.532630
O201	O20	0.983700	0.890080	0.630380
O211	O21	0.409800	0.250040	0.916280
O221	O22	0.235700	0.343800	0.911760
O231	O23	0.348700	0.467370	0.102170
O241	O24	0.516300	0.369620	0.109920
