data_YARYIZ_clean_PM
_symmetry_space_group_name_H-M	'P1'
_cell_length_a	12.195100
_cell_length_b	12.078000
_cell_length_c	14.692100
_cell_angle_alpha	90.000000
_cell_angle_beta	93.436000
_cell_angle_gamma	90.000000
_symmetry_Int_Tables_number 1

loop_
_symmetry_equiv_pos_as_xyz
'x,y,z'

loop_
_atom_site_label
_atom_site_type_symbol
_atom_site_fract_x
_atom_site_fract_y
_atom_site_fract_z
N11	N1	0.156600	0.318500	0.122800
N21	N2	0.852400	0.632200	0.100200
N31	N3	0.384100	0.384800	0.023600
C11	C1	0.106900	0.370600	0.170300
C21	C2	0.902000	0.579500	0.151900
H11	H1	0.347270	0.466460	0.013310
H21	H2	0.420230	0.378590	0.093090
H31	H3	0.447770	0.372910	0.975590
N41	N4	0.656600	0.818500	0.122800
N51	N5	0.352400	0.132200	0.100200
N61	N6	0.884100	0.884800	0.023600
C31	C3	0.606900	0.870600	0.170300
C41	C4	0.402000	0.079500	0.151900
H41	H4	0.847270	0.966460	0.013310
H51	H5	0.920230	0.878590	0.093090
H61	H6	0.947770	0.872910	0.975590
N71	N7	0.843400	0.318500	0.377200
N81	N8	0.147600	0.632200	0.399800
N91	N9	0.615900	0.384800	0.476400
C51	C5	0.893100	0.370600	0.329700
C61	C6	0.098000	0.579500	0.348100
H71	H7	0.652730	0.466460	0.486690
H81	H8	0.579770	0.378590	0.406910
H91	H9	0.552230	0.372910	0.524410
N101	N10	0.343400	0.818500	0.377200
N111	N11	0.647600	0.132200	0.399800
N121	N12	0.115900	0.884800	0.476400
C71	C7	0.393100	0.870600	0.329700
C81	C8	0.598000	0.079500	0.348100
H101	H10	0.152730	0.966460	0.486690
H111	H11	0.079770	0.878590	0.406910
H121	H12	0.052230	0.872910	0.524410
N131	N13	0.843400	0.681500	0.877200
N141	N14	0.147600	0.367800	0.899800
N151	N15	0.615900	0.615200	0.976400
C91	C9	0.893100	0.629400	0.829700
C101	C10	0.098000	0.420500	0.848100
H131	H13	0.652730	0.533540	0.986690
H141	H14	0.579770	0.621410	0.906910
H151	H15	0.552230	0.627090	0.024410
N161	N16	0.343400	0.181500	0.877200
N171	N17	0.647600	0.867800	0.899800
N181	N18	0.115900	0.115200	0.976400
C111	C11	0.393100	0.129400	0.829700
C121	C12	0.598000	0.920500	0.848100
H161	H16	0.152730	0.033540	0.986690
H171	H17	0.079770	0.121410	0.906910
H181	H18	0.052230	0.127090	0.024410
N191	N19	0.156600	0.681500	0.622800
N201	N20	0.852400	0.367800	0.600200
N211	N21	0.384100	0.615200	0.523600
C131	C13	0.106900	0.629400	0.670300
C141	C14	0.902000	0.420500	0.651900
H191	H19	0.347270	0.533540	0.513310
H201	H20	0.420230	0.621410	0.593090
H211	H21	0.447770	0.627090	0.475590
N221	N22	0.656600	0.181500	0.622800
N231	N23	0.352400	0.867800	0.600200
N241	N24	0.884100	0.115200	0.523600
C151	C15	0.606900	0.129400	0.670300
C161	C16	0.402000	0.920500	0.651900
H221	H22	0.847270	0.033540	0.513310
H231	H23	0.920230	0.121410	0.593090
H241	H24	0.947770	0.127090	0.475590
Cd11	Cd1	0.000000	0.475770	0.250000
Cd21	Cd2	0.500000	0.975770	0.250000
Cd31	Cd3	0.000000	0.524230	0.750000
Cd41	Cd4	0.500000	0.024230	0.750000
Cd51	Cd5	0.250000	0.250000	0.000000
Cd61	Cd6	0.750000	0.250000	0.500000
Cd71	Cd7	0.750000	0.750000	0.000000
Cd81	Cd8	0.250000	0.750000	0.500000
