data_YARYUL_clean_PM
_symmetry_space_group_name_H-M	'P1'
_cell_length_a	15.169000
_cell_length_b	16.019000
_cell_length_c	8.866000
_cell_angle_alpha	90.000000
_cell_angle_beta	95.730000
_cell_angle_gamma	90.000000
_symmetry_Int_Tables_number 1

loop_
_symmetry_equiv_pos_as_xyz
'x,y,z'

loop_
_atom_site_label
_atom_site_type_symbol
_atom_site_fract_x
_atom_site_fract_y
_atom_site_fract_z
Cd11	Cd1	0.629690	0.320920	0.042850
Cd21	Cd2	0.266450	0.352130	0.067720
N11	N1	0.410600	0.307500	0.064700
N21	N2	0.218300	0.280000	0.853900
N31	N3	0.710800	0.238200	0.737400
N41	N4	0.692200	0.521000	0.040700
C11	C1	0.484500	0.307700	0.053700
C21	C2	0.191600	0.244200	0.748000
C31	C3	0.679900	0.267200	0.835000
C41	C4	0.671200	0.453900	0.047900
Cd31	Cd3	0.870310	0.820920	0.457150
Cd41	Cd4	0.233550	0.852130	0.432280
N51	N5	0.089400	0.807500	0.435300
N61	N6	0.281700	0.780000	0.646100
N71	N7	0.789200	0.738200	0.762600
N81	N8	0.807800	0.021000	0.459300
C51	C5	0.015500	0.807700	0.446300
C61	C6	0.308400	0.744200	0.752000
C71	C7	0.820100	0.767200	0.665000
C81	C8	0.828800	0.953900	0.452100
Cd51	Cd5	0.370310	0.679080	0.957150
Cd61	Cd6	0.733550	0.647870	0.932280
N91	N9	0.589400	0.692500	0.935300
N101	N10	0.781700	0.720000	0.146100
N111	N11	0.289200	0.761800	0.262600
N121	N12	0.307800	0.479000	0.959300
C91	C9	0.515500	0.692300	0.946300
C101	C10	0.808400	0.755800	0.252000
C111	C11	0.320100	0.732800	0.165000
C121	C12	0.328800	0.546100	0.952100
Cd71	Cd7	0.129690	0.179080	0.542850
Cd81	Cd8	0.766450	0.147870	0.567720
N131	N13	0.910600	0.192500	0.564700
N141	N14	0.718300	0.220000	0.353900
N151	N15	0.210800	0.261800	0.237400
N161	N16	0.192200	0.979000	0.540700
C131	C13	0.984500	0.192300	0.553700
C141	C14	0.691600	0.255800	0.248000
C151	C15	0.179900	0.232800	0.335000
C161	C16	0.171200	0.046100	0.547900
