data_YASLUA_clean_PM
_symmetry_space_group_name_H-M	'P1'
_cell_length_a	7.737300
_cell_length_b	16.120300
_cell_length_c	15.213500
_cell_angle_alpha	90.000000
_cell_angle_beta	90.000000
_cell_angle_gamma	90.000000
_symmetry_Int_Tables_number 1

loop_
_symmetry_equiv_pos_as_xyz
'x,y,z'

loop_
_atom_site_label
_atom_site_type_symbol
_atom_site_fract_x
_atom_site_fract_y
_atom_site_fract_z
Mn11	Mn1	0.482100	0.126340	0.548020
Mn21	Mn2	0.517900	0.873660	0.048020
Mn31	Mn3	0.017900	0.626340	0.548020
Mn41	Mn4	0.982100	0.373660	0.048020
Hg11	Hg1	0.546990	0.433730	0.353150
Hg21	Hg2	0.453010	0.566270	0.853150
Hg31	Hg3	0.953010	0.933730	0.353150
Hg41	Hg4	0.046990	0.066270	0.853150
C11	C1	0.640900	0.246900	0.386600
C21	C2	0.826700	0.002800	0.538500
C31	C3	0.324800	0.007600	0.387600
C41	C4	0.308200	0.008600	0.707200
C51	C5	0.359100	0.753100	0.886600
C61	C6	0.173300	0.997200	0.038500
C71	C7	0.675200	0.992400	0.887600
C81	C8	0.691800	0.991400	0.207200
C91	C9	0.859100	0.746900	0.386600
C101	C10	0.673300	0.502800	0.538500
C111	C11	0.175200	0.507600	0.387600
C121	C12	0.191800	0.508600	0.707200
C131	C13	0.140900	0.253100	0.886600
C141	C14	0.326700	0.497200	0.038500
C151	C15	0.824800	0.492400	0.887600
C161	C16	0.808200	0.491400	0.207200
S11	S1	0.701800	0.304300	0.302400
S21	S2	0.975900	0.934000	0.520200
S31	S3	0.260700	0.954400	0.300500
S41	S4	0.241000	0.951900	0.790000
S51	S5	0.298200	0.695700	0.802400
S61	S6	0.024100	0.066000	0.020200
S71	S7	0.739300	0.045600	0.800500
S81	S8	0.759000	0.048100	0.290000
S91	S9	0.798200	0.804300	0.302400
S101	S10	0.524100	0.434000	0.520200
S111	S11	0.239300	0.454400	0.300500
S121	S12	0.259000	0.451900	0.790000
S131	S13	0.201800	0.195700	0.802400
S141	S14	0.475900	0.566000	0.020200
S151	S15	0.760700	0.545600	0.800500
S161	S16	0.741000	0.548100	0.290000
N11	N1	0.600400	0.206400	0.444500
N21	N2	0.720000	0.050100	0.552300
N31	N3	0.373700	0.046400	0.444800
N41	N4	0.353200	0.049300	0.651500
N51	N5	0.399600	0.793600	0.944500
N61	N6	0.280000	0.949900	0.052300
N71	N7	0.626300	0.953600	0.944800
N81	N8	0.646800	0.950700	0.151500
N91	N9	0.899600	0.706400	0.444500
N101	N10	0.780000	0.550100	0.552300
N111	N11	0.126300	0.546400	0.444800
N121	N12	0.146800	0.549300	0.651500
N131	N13	0.100400	0.293600	0.944500
N141	N14	0.220000	0.449900	0.052300
N151	N15	0.873700	0.453600	0.944800
N161	N16	0.853200	0.450700	0.151500
