data_YATDUV_clean_PM
_symmetry_space_group_name_H-M	'P1'
_cell_length_a	20.078700
_cell_length_b	20.078700
_cell_length_c	20.078700
_cell_angle_alpha	90.000000
_cell_angle_beta	90.000000
_cell_angle_gamma	90.000000
_symmetry_Int_Tables_number 1

loop_
_symmetry_equiv_pos_as_xyz
'x,y,z'

loop_
_atom_site_label
_atom_site_type_symbol
_atom_site_fract_x
_atom_site_fract_y
_atom_site_fract_z
Zn11	Zn1	0.251190	0.270530	0.145700
N11	N1	0.342640	0.243180	0.171050
C11	C1	0.402100	0.268900	0.159400
H11	H1	0.410500	0.303600	0.129900
C21	C2	0.450150	0.236700	0.197300
N21	N2	0.350260	0.193970	0.217480
O11	O1	0.548990	0.292350	0.164800
C31	C3	0.521800	0.250300	0.200700
C41	C4	0.414700	0.189700	0.232800
H21	H2	0.433000	0.159600	0.262900
O21	O2	0.554960	0.216680	0.243170
Zn21	Zn2	0.248810	0.729470	0.645700
N31	N3	0.157360	0.756820	0.671050
C51	C5	0.097900	0.731100	0.659400
H31	H3	0.089500	0.696400	0.629900
C61	C6	0.049850	0.763300	0.697300
N41	N4	0.149740	0.806030	0.717480
O31	O3	0.951010	0.707650	0.664800
C71	C7	0.978200	0.749700	0.700700
C81	C8	0.085300	0.810300	0.732800
H41	H4	0.067000	0.840400	0.762900
O41	O4	0.945040	0.783320	0.743170
Zn31	Zn3	0.748810	0.770530	0.354300
N51	N5	0.657360	0.743180	0.328950
C91	C9	0.597900	0.768900	0.340600
H51	H5	0.589500	0.803600	0.370100
C101	C10	0.549850	0.736700	0.302700
N61	N6	0.649740	0.693970	0.282520
O51	O5	0.451010	0.792350	0.335200
C111	C11	0.478200	0.750300	0.299300
C121	C12	0.585300	0.689700	0.267200
H61	H6	0.567000	0.659600	0.237100
O61	O6	0.445040	0.716680	0.256830
Zn41	Zn4	0.751190	0.229470	0.854300
N71	N7	0.842640	0.256820	0.828950
C131	C13	0.902100	0.231100	0.840600
H71	H7	0.910500	0.196400	0.870100
C141	C14	0.950150	0.263300	0.802700
N81	N8	0.850260	0.306030	0.782520
O71	O7	0.048990	0.207650	0.835200
C151	C15	0.021800	0.249700	0.799300
C161	C16	0.914700	0.310300	0.767200
H81	H8	0.933000	0.340400	0.737100
O81	O8	0.054960	0.283320	0.756830
Zn51	Zn5	0.145700	0.251190	0.270530
N91	N9	0.171050	0.342640	0.243180
C171	C17	0.159400	0.402100	0.268900
H91	H9	0.129900	0.410500	0.303600
C181	C18	0.197300	0.450150	0.236700
N101	N10	0.217480	0.350260	0.193970
O91	O9	0.164800	0.548990	0.292350
C191	C19	0.200700	0.521800	0.250300
C201	C20	0.232800	0.414700	0.189700
H101	H10	0.262900	0.433000	0.159600
O101	O10	0.243170	0.554960	0.216680
Zn61	Zn6	0.645700	0.248810	0.729470
N111	N11	0.671050	0.157360	0.756820
C211	C21	0.659400	0.097900	0.731100
H111	H11	0.629900	0.089500	0.696400
C221	C22	0.697300	0.049850	0.763300
N121	N12	0.717480	0.149740	0.806030
O111	O11	0.664800	0.951010	0.707650
C231	C23	0.700700	0.978200	0.749700
C241	C24	0.732800	0.085300	0.810300
H121	H12	0.762900	0.067000	0.840400
O121	O12	0.743170	0.945040	0.783320
Zn71	Zn7	0.354300	0.748810	0.770530
N131	N13	0.328950	0.657360	0.743180
C251	C25	0.340600	0.597900	0.768900
H131	H13	0.370100	0.589500	0.803600
C261	C26	0.302700	0.549850	0.736700
N141	N14	0.282520	0.649740	0.693970
O131	O13	0.335200	0.451010	0.792350
C271	C27	0.299300	0.478200	0.750300
C281	C28	0.267200	0.585300	0.689700
H141	H14	0.237100	0.567000	0.659600
O141	O14	0.256830	0.445040	0.716680
Zn81	Zn8	0.854300	0.751190	0.229470
N151	N15	0.828950	0.842640	0.256820
C291	C29	0.840600	0.902100	0.231100
H151	H15	0.870100	0.910500	0.196400
C301	C30	0.802700	0.950150	0.263300
N161	N16	0.782520	0.850260	0.306030
O151	O15	0.835200	0.048990	0.207650
C311	C31	0.799300	0.021800	0.249700
C321	C32	0.767200	0.914700	0.310300
H161	H16	0.737100	0.933000	0.340400
O161	O16	0.756830	0.054960	0.283320
Zn91	Zn9	0.270530	0.145700	0.251190
N171	N17	0.243180	0.171050	0.342640
C331	C33	0.268900	0.159400	0.402100
H171	H17	0.303600	0.129900	0.410500
C341	C34	0.236700	0.197300	0.450150
N181	N18	0.193970	0.217480	0.350260
O171	O17	0.292350	0.164800	0.548990
C351	C35	0.250300	0.200700	0.521800
C361	C36	0.189700	0.232800	0.414700
H181	H18	0.159600	0.262900	0.433000
O181	O18	0.216680	0.243170	0.554960
Zn101	Zn10	0.729470	0.645700	0.248810
N191	N19	0.756820	0.671050	0.157360
C371	C37	0.731100	0.659400	0.097900
H191	H19	0.696400	0.629900	0.089500
C381	C38	0.763300	0.697300	0.049850
N201	N20	0.806030	0.717480	0.149740
O191	O19	0.707650	0.664800	0.951010
C391	C39	0.749700	0.700700	0.978200
C401	C40	0.810300	0.732800	0.085300
H201	H20	0.840400	0.762900	0.067000
O201	O20	0.783320	0.743170	0.945040
Zn111	Zn11	0.770530	0.354300	0.748810
N211	N21	0.743180	0.328950	0.657360
C411	C41	0.768900	0.340600	0.597900
H211	H21	0.803600	0.370100	0.589500
C421	C42	0.736700	0.302700	0.549850
N221	N22	0.693970	0.282520	0.649740
O211	O21	0.792350	0.335200	0.451010
C431	C43	0.750300	0.299300	0.478200
C441	C44	0.689700	0.267200	0.585300
H221	H22	0.659600	0.237100	0.567000
O221	O22	0.716680	0.256830	0.445040
Zn121	Zn12	0.229470	0.854300	0.751190
N231	N23	0.256820	0.828950	0.842640
C451	C45	0.231100	0.840600	0.902100
H231	H23	0.196400	0.870100	0.910500
C461	C46	0.263300	0.802700	0.950150
N241	N24	0.306030	0.782520	0.850260
O231	O23	0.207650	0.835200	0.048990
C471	C47	0.249700	0.799300	0.021800
C481	C48	0.310300	0.767200	0.914700
H241	H24	0.340400	0.737100	0.933000
O241	O24	0.283320	0.756830	0.054960
Zn131	Zn13	0.748810	0.729470	0.854300
N251	N25	0.657360	0.756820	0.828950
C491	C49	0.597900	0.731100	0.840600
H251	H25	0.589500	0.696400	0.870100
C501	C50	0.549850	0.763300	0.802700
N261	N26	0.649740	0.806030	0.782520
O251	O25	0.451010	0.707650	0.835200
C511	C51	0.478200	0.749700	0.799300
C521	C52	0.585300	0.810300	0.767200
H261	H26	0.567000	0.840400	0.737100
O261	O26	0.445040	0.783320	0.756830
Zn141	Zn14	0.751190	0.270530	0.354300
N271	N27	0.842640	0.243180	0.328950
C531	C53	0.902100	0.268900	0.340600
H271	H27	0.910500	0.303600	0.370100
C541	C54	0.950150	0.236700	0.302700
N281	N28	0.850260	0.193970	0.282520
O271	O27	0.048990	0.292350	0.335200
C551	C55	0.021800	0.250300	0.299300
C561	C56	0.914700	0.189700	0.267200
H281	H28	0.933000	0.159600	0.237100
O281	O28	0.054960	0.216680	0.256830
Zn151	Zn15	0.251190	0.229470	0.645700
N291	N29	0.342640	0.256820	0.671050
C571	C57	0.402100	0.231100	0.659400
H291	H29	0.410500	0.196400	0.629900
C581	C58	0.450150	0.263300	0.697300
N301	N30	0.350260	0.306030	0.717480
O291	O29	0.548990	0.207650	0.664800
C591	C59	0.521800	0.249700	0.700700
C601	C60	0.414700	0.310300	0.732800
H301	H30	0.433000	0.340400	0.762900
O301	O30	0.554960	0.283320	0.743170
Zn161	Zn16	0.248810	0.770530	0.145700
N311	N31	0.157360	0.743180	0.171050
C611	C61	0.097900	0.768900	0.159400
H311	H31	0.089500	0.803600	0.129900
C621	C62	0.049850	0.736700	0.197300
N321	N32	0.149740	0.693970	0.217480
O311	O31	0.951010	0.792350	0.164800
C631	C63	0.978200	0.750300	0.200700
C641	C64	0.085300	0.689700	0.232800
H321	H32	0.067000	0.659600	0.262900
O321	O32	0.945040	0.716680	0.243170
Zn171	Zn17	0.854300	0.748810	0.729470
N331	N33	0.828950	0.657360	0.756820
C651	C65	0.840600	0.597900	0.731100
H331	H33	0.870100	0.589500	0.696400
C661	C66	0.802700	0.549850	0.763300
N341	N34	0.782520	0.649740	0.806030
O331	O33	0.835200	0.451010	0.707650
C671	C67	0.799300	0.478200	0.749700
C681	C68	0.767200	0.585300	0.810300
H341	H34	0.737100	0.567000	0.840400
O341	O34	0.756830	0.445040	0.783320
Zn181	Zn18	0.354300	0.751190	0.270530
N351	N35	0.328950	0.842640	0.243180
C691	C69	0.340600	0.902100	0.268900
H351	H35	0.370100	0.910500	0.303600
C701	C70	0.302700	0.950150	0.236700
N361	N36	0.282520	0.850260	0.193970
O351	O35	0.335200	0.048990	0.292350
C711	C71	0.299300	0.021800	0.250300
C721	C72	0.267200	0.914700	0.189700
H361	H36	0.237100	0.933000	0.159600
O361	O36	0.256830	0.054960	0.216680
Zn191	Zn19	0.645700	0.251190	0.229470
N371	N37	0.671050	0.342640	0.256820
C731	C73	0.659400	0.402100	0.231100
H371	H37	0.629900	0.410500	0.196400
C741	C74	0.697300	0.450150	0.263300
N381	N38	0.717480	0.350260	0.306030
O371	O37	0.664800	0.548990	0.207650
C751	C75	0.700700	0.521800	0.249700
C761	C76	0.732800	0.414700	0.310300
H381	H38	0.762900	0.433000	0.340400
O381	O38	0.743170	0.554960	0.283320
Zn201	Zn20	0.145700	0.248810	0.770530
N391	N39	0.171050	0.157360	0.743180
C771	C77	0.159400	0.097900	0.768900
H391	H39	0.129900	0.089500	0.803600
C781	C78	0.197300	0.049850	0.736700
N401	N40	0.217480	0.149740	0.693970
O391	O39	0.164800	0.951010	0.792350
C791	C79	0.200700	0.978200	0.750300
C801	C80	0.232800	0.085300	0.689700
H401	H40	0.262900	0.067000	0.659600
O401	O40	0.243170	0.945040	0.716680
Zn211	Zn21	0.729470	0.854300	0.748810
N411	N41	0.756820	0.828950	0.657360
C811	C81	0.731100	0.840600	0.597900
H411	H41	0.696400	0.870100	0.589500
C821	C82	0.763300	0.802700	0.549850
N421	N42	0.806030	0.782520	0.649740
O411	O41	0.707650	0.835200	0.451010
C831	C83	0.749700	0.799300	0.478200
C841	C84	0.810300	0.767200	0.585300
H421	H42	0.840400	0.737100	0.567000
O421	O42	0.783320	0.756830	0.445040
Zn221	Zn22	0.270530	0.354300	0.751190
N431	N43	0.243180	0.328950	0.842640
C851	C85	0.268900	0.340600	0.902100
H431	H43	0.303600	0.370100	0.910500
C861	C86	0.236700	0.302700	0.950150
N441	N44	0.193970	0.282520	0.850260
O431	O43	0.292350	0.335200	0.048990
C871	C87	0.250300	0.299300	0.021800
C881	C88	0.189700	0.267200	0.914700
H441	H44	0.159600	0.237100	0.933000
O441	O44	0.216680	0.256830	0.054960
Zn231	Zn23	0.229470	0.645700	0.251190
N451	N45	0.256820	0.671050	0.342640
C891	C89	0.231100	0.659400	0.402100
H451	H45	0.196400	0.629900	0.410500
C901	C90	0.263300	0.697300	0.450150
N461	N46	0.306030	0.717480	0.350260
O451	O45	0.207650	0.664800	0.548990
C911	C91	0.249700	0.700700	0.521800
C921	C92	0.310300	0.732800	0.414700
H461	H46	0.340400	0.762900	0.433000
O461	O46	0.283320	0.743170	0.554960
Zn241	Zn24	0.770530	0.145700	0.248810
N471	N47	0.743180	0.171050	0.157360
C931	C93	0.768900	0.159400	0.097900
H471	H47	0.803600	0.129900	0.089500
C941	C94	0.736700	0.197300	0.049850
N481	N48	0.693970	0.217480	0.149740
O471	O47	0.792350	0.164800	0.951010
C951	C95	0.750300	0.200700	0.978200
C961	C96	0.689700	0.232800	0.085300
H481	H48	0.659600	0.262900	0.067000
O481	O48	0.716680	0.243170	0.945040
O491	O49	0.201200	0.201200	0.201200
O501	O50	0.298800	0.798800	0.701200
O511	O51	0.798800	0.701200	0.298800
O521	O52	0.701200	0.298800	0.798800
O531	O53	0.798800	0.798800	0.798800
O541	O54	0.701200	0.201200	0.298800
O551	O55	0.201200	0.298800	0.701200
O561	O56	0.298800	0.701200	0.201200
