data_YAVTUN_clean_PM
_symmetry_space_group_name_H-M	'P1'
_cell_length_a	15.528000
_cell_length_b	15.999000
_cell_length_c	13.519000
_cell_angle_alpha	90.000000
_cell_angle_beta	112.643000
_cell_angle_gamma	90.000000
_symmetry_Int_Tables_number 1

loop_
_symmetry_equiv_pos_as_xyz
'x,y,z'

loop_
_atom_site_label
_atom_site_type_symbol
_atom_site_fract_x
_atom_site_fract_y
_atom_site_fract_z
Nd11	Nd1	0.426800	0.041720	0.592290
O11	O1	0.414100	0.010500	0.764300
O21	O2	0.283900	0.990500	0.570700
O31	O3	0.443500	0.887600	0.592200
O41	O4	0.389100	0.010400	0.407600
O51	O5	0.499600	0.153400	0.527900
C11	C1	0.357500	0.991200	0.809400
C21	C2	0.228800	0.974400	0.623600
C31	C3	0.466000	0.833600	0.543400
C41	C4	0.259700	0.981700	0.734400
C51	C5	0.135400	0.957500	0.563000
C61	C6	0.449100	0.744700	0.560600
C71	C7	0.197100	0.972100	0.784500
H11	H1	0.114800	0.952700	0.488900
C81	C8	0.072900	0.947900	0.613100
C91	C9	0.482400	0.680000	0.515800
C101	C10	0.403100	0.728700	0.634000
C111	C11	0.103800	0.955200	0.723900
H21	H2	0.217800	0.977000	0.858600
H31	H3	0.010400	0.936600	0.572600
H41	H4	0.517000	0.691500	0.474400
C121	C12	0.463000	0.597600	0.534000
C131	C13	0.387000	0.644100	0.654000
O61	O6	0.372500	0.784900	0.679900
N11	N1	0.042800	0.953400	0.782100
C141	C14	0.416000	0.580300	0.602000
N21	N2	0.504000	0.536700	0.487000
H51	H5	0.357900	0.631100	0.700400
H61	H6	0.402900	0.525000	0.613500
Nd21	Nd2	0.573200	0.041720	0.907710
O71	O7	0.585900	0.010500	0.735700
O81	O8	0.716100	0.990500	0.929300
O91	O9	0.556500	0.887600	0.907800
O101	O10	0.610900	0.010400	0.092400
O111	O11	0.500400	0.153400	0.972100
C151	C15	0.642500	0.991200	0.690600
C161	C16	0.771200	0.974400	0.876400
C171	C17	0.534000	0.833600	0.956600
C181	C18	0.740300	0.981700	0.765600
C191	C19	0.864600	0.957500	0.937000
C201	C20	0.550900	0.744700	0.939400
C211	C21	0.802900	0.972100	0.715500
H71	H7	0.885200	0.952700	0.011100
C221	C22	0.927100	0.947900	0.886900
C231	C23	0.517600	0.680000	0.984200
C241	C24	0.596900	0.728700	0.866000
C251	C25	0.896200	0.955200	0.776100
H81	H8	0.782200	0.977000	0.641400
H91	H9	0.989600	0.936600	0.927400
H101	H10	0.483000	0.691500	0.025600
C261	C26	0.537000	0.597600	0.966000
C271	C27	0.613000	0.644100	0.846000
O121	O12	0.627500	0.784900	0.820100
N31	N3	0.957200	0.953400	0.717900
C281	C28	0.584000	0.580300	0.898000
N41	N4	0.496000	0.536700	0.013000
H111	H11	0.642100	0.631100	0.799600
H121	H12	0.597100	0.525000	0.886500
Nd31	Nd3	0.573200	0.958280	0.407710
O131	O13	0.585900	0.989500	0.235700
O141	O14	0.716100	0.009500	0.429300
O151	O15	0.556500	0.112400	0.407800
O161	O16	0.610900	0.989600	0.592400
O171	O17	0.500400	0.846600	0.472100
C291	C29	0.642500	0.008800	0.190600
C301	C30	0.771200	0.025600	0.376400
C311	C31	0.534000	0.166400	0.456600
C321	C32	0.740300	0.018300	0.265600
C331	C33	0.864600	0.042500	0.437000
C341	C34	0.550900	0.255300	0.439400
C351	C35	0.802900	0.027900	0.215500
H131	H13	0.885200	0.047300	0.511100
C361	C36	0.927100	0.052100	0.386900
C371	C37	0.517600	0.320000	0.484200
C381	C38	0.596900	0.271300	0.366000
C391	C39	0.896200	0.044800	0.276100
H141	H14	0.782200	0.023000	0.141400
H151	H15	0.989600	0.063400	0.427400
H161	H16	0.483000	0.308500	0.525600
C401	C40	0.537000	0.402400	0.466000
C411	C41	0.613000	0.355900	0.346000
O181	O18	0.627500	0.215100	0.320100
N51	N5	0.957200	0.046600	0.217900
C421	C42	0.584000	0.419700	0.398000
N61	N6	0.496000	0.463300	0.513000
H171	H17	0.642100	0.368900	0.299600
H181	H18	0.597100	0.475000	0.386500
Nd41	Nd4	0.426800	0.958280	0.092290
O191	O19	0.414100	0.989500	0.264300
O201	O20	0.283900	0.009500	0.070700
O211	O21	0.443500	0.112400	0.092200
O221	O22	0.389100	0.989600	0.907600
O231	O23	0.499600	0.846600	0.027900
C431	C43	0.357500	0.008800	0.309400
C441	C44	0.228800	0.025600	0.123600
C451	C45	0.466000	0.166400	0.043400
C461	C46	0.259700	0.018300	0.234400
C471	C47	0.135400	0.042500	0.063000
C481	C48	0.449100	0.255300	0.060600
C491	C49	0.197100	0.027900	0.284500
H191	H19	0.114800	0.047300	0.988900
C501	C50	0.072900	0.052100	0.113100
C511	C51	0.482400	0.320000	0.015800
C521	C52	0.403100	0.271300	0.134000
C531	C53	0.103800	0.044800	0.223900
H201	H20	0.217800	0.023000	0.358600
H211	H21	0.010400	0.063400	0.072600
H221	H22	0.517000	0.308500	0.974400
C541	C54	0.463000	0.402400	0.034000
C551	C55	0.387000	0.355900	0.154000
O241	O24	0.372500	0.215100	0.179900
N71	N7	0.042800	0.046600	0.282100
C561	C56	0.416000	0.419700	0.102000
N81	N8	0.504000	0.463300	0.987000
H231	H23	0.357900	0.368900	0.200400
H241	H24	0.402900	0.475000	0.113500
O251	O25	0.500000	0.153200	0.750000
O261	O26	0.500000	0.846800	0.250000
