data_YAVVEZ_clean_PM
_symmetry_space_group_name_H-M	'P1'
_cell_length_a	15.535400
_cell_length_b	15.898100
_cell_length_c	13.311100
_cell_angle_alpha	90.000000
_cell_angle_beta	112.592000
_cell_angle_gamma	90.000000
_symmetry_Int_Tables_number 1

loop_
_symmetry_equiv_pos_as_xyz
'x,y,z'

loop_
_atom_site_label
_atom_site_type_symbol
_atom_site_fract_x
_atom_site_fract_y
_atom_site_fract_z
C11	C1	0.105000	0.044700	0.725000
C21	C2	0.196800	0.029100	0.785200
H11	H1	0.216300	0.024200	0.860300
C31	C3	0.230700	0.025200	0.621000
C41	C4	0.137300	0.044400	0.562900
H21	H2	0.116600	0.051500	0.487900
C51	C5	0.075200	0.053300	0.611300
H31	H3	0.013000	0.065000	0.569400
C61	C6	0.448600	0.253400	0.567600
C71	C7	0.263600	0.020100	0.737200
C81	C8	0.468700	0.400800	0.540600
C91	C9	0.482300	0.319200	0.522200
H41	H4	0.514800	0.306300	0.478400
C101	C10	0.359400	0.003900	0.806300
C111	C11	0.466500	0.162100	0.542800
C121	C12	0.417100	0.418200	0.602000
H51	H5	0.404900	0.474100	0.612500
C131	C13	0.383000	0.356600	0.648400
H61	H6	0.348100	0.370200	0.689300
C141	C14	0.401900	0.273300	0.632900
C151	C15	0.595000	0.660000	0.773000
N11	N1	0.508700	0.463200	0.492400
N21	N2	0.042500	0.044800	0.781100
O11	O1	0.445200	0.108700	0.595000
O21	O2	0.368600	0.213800	0.678600
O31	O3	0.387000	0.010500	0.909100
O41	O4	0.499800	0.150500	0.471500
O51	O5	0.418300	0.984600	0.765900
O61	O6	0.285000	0.012700	0.568400
Sm11	Sm1	0.427090	0.957200	0.592580
C161	C16	0.895000	0.044700	0.775000
C171	C17	0.803200	0.029100	0.714800
H71	H7	0.783700	0.024200	0.639700
C181	C18	0.769300	0.025200	0.879000
C191	C19	0.862700	0.044400	0.937100
H81	H8	0.883400	0.051500	0.012100
C201	C20	0.924800	0.053300	0.888700
H91	H9	0.987000	0.065000	0.930600
C211	C21	0.551400	0.253400	0.932400
C221	C22	0.736400	0.020100	0.762800
C231	C23	0.531300	0.400800	0.959400
C241	C24	0.517700	0.319200	0.977800
H101	H10	0.485200	0.306300	0.021600
C251	C25	0.640600	0.003900	0.693700
C261	C26	0.533500	0.162100	0.957200
C271	C27	0.582900	0.418200	0.898000
H111	H11	0.595100	0.474100	0.887500
C281	C28	0.617000	0.356600	0.851600
H121	H12	0.651900	0.370200	0.810700
C291	C29	0.598100	0.273300	0.867100
C301	C30	0.405000	0.660000	0.727000
N31	N3	0.491300	0.463200	0.007600
N41	N4	0.957500	0.044800	0.718900
O71	O7	0.554800	0.108700	0.905000
O81	O8	0.631400	0.213800	0.821400
O91	O9	0.613000	0.010500	0.590900
O101	O10	0.500200	0.150500	0.028500
O111	O11	0.581700	0.984600	0.734100
O121	O12	0.715000	0.012700	0.931600
Sm21	Sm2	0.572910	0.957200	0.907420
C311	C31	0.895000	0.955300	0.275000
C321	C32	0.803200	0.970900	0.214800
H131	H13	0.783700	0.975800	0.139700
C331	C33	0.769300	0.974800	0.379000
C341	C34	0.862700	0.955600	0.437100
H141	H14	0.883400	0.948500	0.512100
C351	C35	0.924800	0.946700	0.388700
H151	H15	0.987000	0.935000	0.430600
C361	C36	0.551400	0.746600	0.432400
C371	C37	0.736400	0.979900	0.262800
C381	C38	0.531300	0.599200	0.459400
C391	C39	0.517700	0.680800	0.477800
H161	H16	0.485200	0.693700	0.521600
C401	C40	0.640600	0.996100	0.193700
C411	C41	0.533500	0.837900	0.457200
C421	C42	0.582900	0.581800	0.398000
H171	H17	0.595100	0.525900	0.387500
C431	C43	0.617000	0.643400	0.351600
H181	H18	0.651900	0.629800	0.310700
C441	C44	0.598100	0.726700	0.367100
C451	C45	0.405000	0.340000	0.227000
N51	N5	0.491300	0.536800	0.507600
N61	N6	0.957500	0.955200	0.218900
O131	O13	0.554800	0.891300	0.405000
O141	O14	0.631400	0.786200	0.321400
O151	O15	0.613000	0.989500	0.090900
O161	O16	0.500200	0.849500	0.528500
O171	O17	0.581700	0.015400	0.234100
O181	O18	0.715000	0.987300	0.431600
Sm31	Sm3	0.572910	0.042800	0.407420
C461	C46	0.105000	0.955300	0.225000
C471	C47	0.196800	0.970900	0.285200
H191	H19	0.216300	0.975800	0.360300
C481	C48	0.230700	0.974800	0.121000
C491	C49	0.137300	0.955600	0.062900
H201	H20	0.116600	0.948500	0.987900
C501	C50	0.075200	0.946700	0.111300
H211	H21	0.013000	0.935000	0.069400
C511	C51	0.448600	0.746600	0.067600
C521	C52	0.263600	0.979900	0.237200
C531	C53	0.468700	0.599200	0.040600
C541	C54	0.482300	0.680800	0.022200
H221	H22	0.514800	0.693700	0.978400
C551	C55	0.359400	0.996100	0.306300
C561	C56	0.466500	0.837900	0.042800
C571	C57	0.417100	0.581800	0.102000
H231	H23	0.404900	0.525900	0.112500
C581	C58	0.383000	0.643400	0.148400
H241	H24	0.348100	0.629800	0.189300
C591	C59	0.401900	0.726700	0.132900
C601	C60	0.595000	0.340000	0.273000
N71	N7	0.508700	0.536800	0.992400
N81	N8	0.042500	0.955200	0.281100
O191	O19	0.445200	0.891300	0.095000
O201	O20	0.368600	0.786200	0.178600
O211	O21	0.387000	0.989500	0.409100
O221	O22	0.499800	0.849500	0.971500
O231	O23	0.418300	0.015400	0.265900
O241	O24	0.285000	0.987300	0.068400
Sm41	Sm4	0.427090	0.042800	0.092580
C611	C61	0.500000	0.784000	0.750000
N91	N9	0.500000	0.692000	0.750000
O251	O25	0.500000	0.844200	0.750000
C621	C62	0.500000	0.216000	0.250000
N101	N10	0.500000	0.308000	0.250000
O261	O26	0.500000	0.155800	0.250000
