data_YAVWAW_clean_PM
_symmetry_space_group_name_H-M	'P1'
_cell_length_a	8.830400
_cell_length_b	8.825700
_cell_length_c	27.644000
_cell_angle_alpha	90.000000
_cell_angle_beta	102.142000
_cell_angle_gamma	90.000000
_symmetry_Int_Tables_number 1

loop_
_symmetry_equiv_pos_as_xyz
'x,y,z'

loop_
_atom_site_label
_atom_site_type_symbol
_atom_site_fract_x
_atom_site_fract_y
_atom_site_fract_z
C11	C1	0.559300	0.753100	0.164400
C21	C2	0.584100	0.773600	0.113000
C31	C3	0.654700	0.903300	0.099000
C41	C4	0.676700	0.915500	0.051000
H11	H1	0.723700	0.001800	0.041600
C51	C5	0.630800	0.803600	0.017400
H21	H2	0.645300	0.815000	0.985200
C61	C6	0.562400	0.672200	0.030600
C71	C7	0.537300	0.659500	0.078600
H31	H3	0.488700	0.573600	0.087500
C81	C8	0.341000	0.187900	0.174300
C91	C9	0.255000	0.066500	0.143600
C101	C10	0.235400	0.918300	0.162100
C111	C11	0.154300	0.812500	0.127500
H41	H4	0.144000	0.713500	0.138000
C121	C12	0.090900	0.849500	0.079800
H51	H5	0.037500	0.776500	0.058500
C131	C13	0.105500	0.996400	0.062500
C141	C14	0.187600	0.100500	0.094400
H61	H6	0.199100	0.197800	0.082800
H71	H7	0.673000	0.991000	0.156900
Ho11	Ho1	0.503790	0.939070	0.267060
N11	N1	0.524200	0.559900	0.993200
N21	N2	0.037400	0.048000	0.014100
O11	O1	0.498300	0.634500	0.175140
O21	O2	0.333800	0.320500	0.158760
O31	O3	0.600100	0.863300	0.194810
O41	O4	0.703300	0.016900	0.131000
O51	O5	0.282100	0.878700	0.208720
O61	O6	0.424800	0.159500	0.217380
C151	C15	0.440700	0.253100	0.335600
C161	C16	0.415900	0.273600	0.387000
C171	C17	0.345300	0.403300	0.401000
C181	C18	0.323300	0.415500	0.449000
H81	H8	0.276300	0.501800	0.458400
C191	C19	0.369200	0.303600	0.482600
H91	H9	0.354700	0.315000	0.514800
C201	C20	0.437600	0.172200	0.469400
C211	C21	0.462700	0.159500	0.421400
H101	H10	0.511300	0.073600	0.412500
C221	C22	0.659000	0.687900	0.325700
C231	C23	0.745000	0.566500	0.356400
C241	C24	0.764600	0.418300	0.337900
C251	C25	0.845700	0.312500	0.372500
H111	H11	0.856000	0.213500	0.362000
C261	C26	0.909100	0.349500	0.420200
H121	H12	0.962500	0.276500	0.441500
C271	C27	0.894500	0.496400	0.437500
C281	C28	0.812400	0.600500	0.405600
H131	H13	0.800900	0.697800	0.417200
H141	H14	0.327000	0.491000	0.343100
Ho21	Ho2	0.496210	0.439070	0.232940
N31	N3	0.475800	0.059900	0.506800
N41	N4	0.962600	0.548000	0.485900
O71	O7	0.501700	0.134500	0.324860
O81	O8	0.666200	0.820500	0.341240
O91	O9	0.399900	0.363300	0.305190
O101	O10	0.296700	0.516900	0.369000
O111	O11	0.717900	0.378700	0.291280
O121	O12	0.575200	0.659500	0.282620
C291	C29	0.440700	0.246900	0.835600
C301	C30	0.415900	0.226400	0.887000
C311	C31	0.345300	0.096700	0.901000
C321	C32	0.323300	0.084500	0.949000
H151	H15	0.276300	0.998200	0.958400
C331	C33	0.369200	0.196400	0.982600
H161	H16	0.354700	0.185000	0.014800
C341	C34	0.437600	0.327800	0.969400
C351	C35	0.462700	0.340500	0.921400
H171	H17	0.511300	0.426400	0.912500
C361	C36	0.659000	0.812100	0.825700
C371	C37	0.745000	0.933500	0.856400
C381	C38	0.764600	0.081700	0.837900
C391	C39	0.845700	0.187500	0.872500
H181	H18	0.856000	0.286500	0.862000
C401	C40	0.909100	0.150500	0.920200
H191	H19	0.962500	0.223500	0.941500
C411	C41	0.894500	0.003600	0.937500
C421	C42	0.812400	0.899500	0.905600
H201	H20	0.800900	0.802200	0.917200
H211	H21	0.327000	0.009000	0.843100
Ho31	Ho3	0.496210	0.060930	0.732940
N51	N5	0.475800	0.440100	0.006800
N61	N6	0.962600	0.952000	0.985900
O131	O13	0.501700	0.365500	0.824860
O141	O14	0.666200	0.679500	0.841240
O151	O15	0.399900	0.136700	0.805190
O161	O16	0.296700	0.983100	0.869000
O171	O17	0.717900	0.121300	0.791280
O181	O18	0.575200	0.840500	0.782620
C431	C43	0.559300	0.746900	0.664400
C441	C44	0.584100	0.726400	0.613000
C451	C45	0.654700	0.596700	0.599000
C461	C46	0.676700	0.584500	0.551000
H221	H22	0.723700	0.498200	0.541600
C471	C47	0.630800	0.696400	0.517400
H231	H23	0.645300	0.685000	0.485200
C481	C48	0.562400	0.827800	0.530600
C491	C49	0.537300	0.840500	0.578600
H241	H24	0.488700	0.926400	0.587500
C501	C50	0.341000	0.312100	0.674300
C511	C51	0.255000	0.433500	0.643600
C521	C52	0.235400	0.581700	0.662100
C531	C53	0.154300	0.687500	0.627500
H251	H25	0.144000	0.786500	0.638000
C541	C54	0.090900	0.650500	0.579800
H261	H26	0.037500	0.723500	0.558500
C551	C55	0.105500	0.503600	0.562500
C561	C56	0.187600	0.399500	0.594400
H271	H27	0.199100	0.302200	0.582800
H281	H28	0.673000	0.509000	0.656900
Ho41	Ho4	0.503790	0.560930	0.767060
N71	N7	0.524200	0.940100	0.493200
N81	N8	0.037400	0.452000	0.514100
O191	O19	0.498300	0.865500	0.675140
O201	O20	0.333800	0.179500	0.658760
O211	O21	0.600100	0.636700	0.694810
O221	O22	0.703300	0.483100	0.631000
O231	O23	0.282100	0.621300	0.708720
O241	O24	0.424800	0.340500	0.717380
