data_YAVZUT_clean_PM
_symmetry_space_group_name_H-M	'P1'
_cell_length_a	18.958600
_cell_length_b	18.958600
_cell_length_c	38.058900
_cell_angle_alpha	90.000000
_cell_angle_beta	90.000000
_cell_angle_gamma	120.000000
_symmetry_Int_Tables_number 1

loop_
_symmetry_equiv_pos_as_xyz
'x,y,z'

loop_
_atom_site_label
_atom_site_type_symbol
_atom_site_fract_x
_atom_site_fract_y
_atom_site_fract_z
Zn11	Zn1	0.808060	0.616460	0.999940
Zn21	Zn2	0.858080	0.716680	0.934600
O11	O1	0.962100	0.778600	0.962000
O21	O2	0.925200	0.702600	0.010100
C11	C1	0.971900	0.762800	0.991200
C21	C2	0.052700	0.822000	0.011460
C31	C3	0.107500	0.893400	0.994310
H11	H1	0.096500	0.903400	0.971000
C41	C4	0.178400	0.950300	0.011200
C51	C5	0.194500	0.935700	0.045240
H21	H2	0.242900	0.974600	0.056800
C61	C6	0.139700	0.864300	0.062400
C71	C7	0.068800	0.807400	0.045500
H31	H3	0.031300	0.758600	0.057200
C81	C8	0.240600	0.026100	0.993500
O31	O3	0.226100	0.034600	0.962000
O41	O4	0.299100	0.074000	0.008300
C91	C9	0.164300	0.843000	0.098700
C101	C10	0.187100	0.902500	0.124400
C111	C11	0.197800	0.885600	0.158900
H41	H4	0.213400	0.926200	0.176500
C121	C12	0.185700	0.809100	0.167700
C131	C13	0.162900	0.749600	0.142000
C141	C14	0.152200	0.766500	0.107500
H51	H5	0.136700	0.725800	0.089900
O51	O5	0.162700	0.681900	0.151800
C151	C15	0.136500	0.616000	0.173000
H61	H6	0.111400	0.615300	0.196200
C161	C16	0.091100	0.535500	0.147200
H71	H7	0.111500	0.497300	0.151500
H81	H8	0.031300	0.506400	0.150400
C171	C17	0.116100	0.575100	0.109400
H91	H9	0.093100	0.610700	0.105500
H101	H10	0.095000	0.532000	0.091600
H111	H11	0.175600	0.607100	0.107700
C181	C18	0.219300	0.614400	0.172100
H121	H12	0.246200	0.635200	0.149400
H131	H13	0.207900	0.558400	0.175200
H141	H14	0.255000	0.648700	0.191000
O61	O6	0.219200	0.986000	0.111000
C191	C19	0.259600	0.060600	0.135200
H151	H15	0.310600	0.070600	0.147300
C201	C20	0.267900	0.127900	0.109700
H161	H16	0.296900	0.182500	0.120700
H171	H17	0.296000	0.128300	0.087700
C211	C21	0.179700	0.100100	0.103500
H181	H18	0.169400	0.098200	0.078200
H191	H19	0.166000	0.138300	0.114700
H201	H20	0.146000	0.045700	0.113600
C221	C22	0.183100	0.027800	0.158100
H211	H21	0.139000	0.978500	0.147300
H221	H22	0.166700	0.069100	0.160000
H231	H23	0.194800	0.014800	0.181500
C231	C23	0.097700	0.638400	0.275600
O71	O7	0.033900	0.591200	0.255100
O81	O8	0.117700	0.629100	0.306500
O91	O9	0.369500	0.886600	0.305200
O101	O10	0.408400	0.966200	0.257360
C241	C24	0.356400	0.901100	0.272200
C251	C25	0.198200	0.803700	0.206380
C261	C26	0.269400	0.859400	0.223400
H241	H24	0.309400	0.906100	0.211200
C271	C27	0.282100	0.846800	0.258200
C281	C28	0.223600	0.778400	0.276080
H251	H25	0.232200	0.769800	0.299900
C291	C29	0.152400	0.722700	0.259000
C301	C30	0.139700	0.735300	0.224200
H261	H26	0.091000	0.697200	0.212500
Zn31	Zn3	0.474730	0.949790	0.333270
Zn41	Zn4	0.524750	0.050010	0.267930
O111	O11	0.628770	0.111930	0.295330
O121	O12	0.591870	0.035930	0.343430
C311	C31	0.638570	0.096130	0.324530
C321	C32	0.719370	0.155330	0.344790
C331	C33	0.774170	0.226730	0.327640
H271	H27	0.763170	0.236730	0.304330
C341	C34	0.845070	0.283630	0.344530
C351	C35	0.861170	0.269030	0.378570
H281	H28	0.909570	0.307930	0.390130
C361	C36	0.806370	0.197630	0.395730
C371	C37	0.735470	0.140730	0.378830
H291	H29	0.697970	0.091930	0.390530
C381	C38	0.907270	0.359430	0.326830
O131	O13	0.892770	0.367930	0.295330
O141	O14	0.965770	0.407330	0.341630
C391	C39	0.830970	0.176330	0.432030
C401	C40	0.853770	0.235830	0.457730
C411	C41	0.864470	0.218930	0.492230
H301	H30	0.880070	0.259530	0.509830
C421	C42	0.852370	0.142430	0.501030
C431	C43	0.829570	0.082930	0.475330
C441	C44	0.818870	0.099830	0.440830
H311	H31	0.803370	0.059130	0.423230
O151	O15	0.829370	0.015230	0.485130
C451	C45	0.803170	0.949330	0.506330
H321	H32	0.778070	0.948630	0.529530
C461	C46	0.757770	0.868830	0.480530
H331	H33	0.778170	0.830630	0.484830
H341	H34	0.697970	0.839730	0.483730
C471	C47	0.782770	0.908430	0.442730
H351	H35	0.759770	0.944030	0.438830
H361	H36	0.761670	0.865330	0.424930
H371	H37	0.842270	0.940430	0.441030
C481	C48	0.885970	0.947730	0.505430
H381	H38	0.912870	0.968530	0.482730
H391	H39	0.874570	0.891730	0.508530
H401	H40	0.921670	0.982030	0.524330
O161	O16	0.885870	0.319330	0.444330
C491	C49	0.926270	0.393930	0.468530
H411	H41	0.977270	0.403930	0.480630
C501	C50	0.934570	0.461230	0.443030
H421	H42	0.963570	0.515830	0.454030
H431	H43	0.962670	0.461630	0.421030
C511	C51	0.846370	0.433430	0.436830
H441	H44	0.836070	0.431530	0.411530
H451	H45	0.832670	0.471630	0.448030
H461	H46	0.812670	0.379030	0.446930
C521	C52	0.849770	0.361130	0.491430
H471	H47	0.805670	0.311830	0.480630
H481	H48	0.833370	0.402430	0.493330
H491	H49	0.861470	0.348130	0.514830
C531	C53	0.764370	0.971730	0.608930
O171	O17	0.700570	0.924530	0.588430
O181	O18	0.784370	0.962430	0.639830
O191	O19	0.036170	0.219930	0.638530
O201	O20	0.075070	0.299530	0.590690
C541	C54	0.023070	0.234430	0.605530
C551	C55	0.864870	0.137030	0.539710
C561	C56	0.936070	0.192730	0.556730
H501	H50	0.976070	0.239430	0.544530
C571	C57	0.948770	0.180130	0.591530
C581	C58	0.890270	0.111730	0.609410
H511	H51	0.898870	0.103130	0.633230
C591	C59	0.819070	0.056030	0.592330
C601	C60	0.806370	0.068630	0.557530
H521	H52	0.757670	0.030530	0.545830
Zn51	Zn5	0.141390	0.283130	0.666610
Zn61	Zn6	0.191410	0.383350	0.601270
O211	O21	0.295430	0.445270	0.628670
O221	O22	0.258530	0.369270	0.676770
C611	C61	0.305230	0.429470	0.657870
C621	C62	0.386030	0.488670	0.678130
C631	C63	0.440830	0.560070	0.660980
H531	H53	0.429830	0.570070	0.637670
C641	C64	0.511730	0.616970	0.677870
C651	C65	0.527830	0.602370	0.711910
H541	H54	0.576230	0.641270	0.723470
C661	C66	0.473030	0.530970	0.729070
C671	C67	0.402130	0.474070	0.712170
H551	H55	0.364630	0.425270	0.723870
C681	C68	0.573930	0.692770	0.660170
O231	O23	0.559430	0.701270	0.628670
O241	O24	0.632430	0.740670	0.674970
C691	C69	0.497630	0.509670	0.765370
C701	C70	0.520430	0.569170	0.791070
C711	C71	0.531130	0.552270	0.825570
H561	H56	0.546730	0.592870	0.843170
C721	C72	0.519030	0.475770	0.834370
C731	C73	0.496230	0.416270	0.808670
C741	C74	0.485530	0.433170	0.774170
H571	H57	0.470030	0.392470	0.756570
O251	O25	0.496030	0.348570	0.818470
C751	C75	0.469830	0.282670	0.839670
H581	H58	0.444730	0.281970	0.862870
C761	C76	0.424430	0.202170	0.813870
H591	H59	0.444830	0.163970	0.818170
H601	H60	0.364630	0.173070	0.817070
C771	C77	0.449430	0.241770	0.776070
H611	H61	0.426430	0.277370	0.772170
H621	H62	0.428330	0.198670	0.758270
H631	H63	0.508930	0.273770	0.774370
C781	C78	0.552630	0.281070	0.838770
H641	H64	0.579530	0.301870	0.816070
H651	H65	0.541230	0.225070	0.841870
H661	H66	0.588330	0.315370	0.857670
O261	O26	0.552530	0.652670	0.777670
C791	C79	0.592930	0.727270	0.801870
H671	H67	0.643930	0.737270	0.813970
C801	C80	0.601230	0.794570	0.776370
H681	H68	0.630230	0.849170	0.787370
H691	H69	0.629330	0.794970	0.754370
C811	C81	0.513030	0.766770	0.770170
H701	H70	0.502730	0.764870	0.744870
H711	H71	0.499330	0.804970	0.781370
H721	H72	0.479330	0.712370	0.780270
C821	C82	0.516430	0.694470	0.824770
H731	H73	0.472330	0.645170	0.813970
H741	H74	0.500030	0.735770	0.826670
H751	H75	0.528130	0.681470	0.848170
C831	C83	0.431030	0.305070	0.942270
O271	O27	0.367230	0.257870	0.921770
O281	O28	0.451030	0.295770	0.973170
O291	O29	0.702830	0.553270	0.971870
O301	O30	0.741730	0.632870	0.924030
C841	C84	0.689730	0.567770	0.938870
C851	C85	0.531530	0.470370	0.873050
C861	C86	0.602730	0.526070	0.890070
H761	H76	0.642730	0.572770	0.877870
C871	C87	0.615430	0.513470	0.924870
C881	C88	0.556930	0.445070	0.942750
H771	H77	0.565530	0.436470	0.966570
C891	C89	0.485730	0.389370	0.925670
C901	C90	0.473030	0.401970	0.890870
H781	H78	0.424330	0.363870	0.879170
Zn71	Zn7	0.383540	0.191600	0.999940
Zn81	Zn8	0.283320	0.141400	0.934600
O311	O31	0.221400	0.183500	0.962000
O321	O32	0.297400	0.222600	0.010100
C911	C91	0.237200	0.209100	0.991200
C921	C92	0.178000	0.230700	0.011460
C931	C93	0.106600	0.214100	0.994310
H791	H79	0.096600	0.193100	0.971000
C941	C94	0.049700	0.228100	0.011200
C951	C95	0.064300	0.258800	0.045240
H801	H80	0.025400	0.268300	0.056800
C961	C96	0.135700	0.275400	0.062400
C971	C97	0.192600	0.261400	0.045500
H811	H81	0.241400	0.272700	0.057200
C981	C98	0.973900	0.214500	0.993500
O331	O33	0.965400	0.191500	0.962000
O341	O34	0.926000	0.225100	0.008300
C991	C99	0.157000	0.321300	0.098700
C1001	C100	0.097500	0.284600	0.124400
C1011	C101	0.114400	0.312200	0.158900
H821	H82	0.073800	0.287200	0.176500
C1021	C102	0.190900	0.376600	0.167700
C1031	C103	0.250400	0.413300	0.142000
C1041	C104	0.233500	0.385700	0.107500
H831	H83	0.274200	0.410900	0.089900
O351	O35	0.318100	0.480800	0.151800
C1051	C105	0.384000	0.520500	0.173000
H841	H84	0.384700	0.496100	0.196200
C1061	C106	0.464500	0.555600	0.147200
H851	H85	0.502700	0.614200	0.151500
H861	H86	0.493600	0.524900	0.150400
C1071	C107	0.424900	0.541000	0.109400
H871	H87	0.389300	0.482400	0.105500
H881	H88	0.468000	0.563000	0.091600
H891	H89	0.392900	0.568500	0.107700
C1081	C108	0.385600	0.604900	0.172100
H901	H90	0.364800	0.611000	0.149400
H911	H91	0.441600	0.649500	0.175200
H921	H92	0.351300	0.606300	0.191000
O361	O36	0.014000	0.233200	0.111000
C1091	C109	0.939400	0.199000	0.135200
H931	H93	0.929400	0.240000	0.147300
C1101	C110	0.872100	0.140000	0.109700
H941	H94	0.817500	0.114400	0.120700
H951	H95	0.871700	0.167700	0.087700
C1111	C111	0.899900	0.079600	0.103500
H961	H96	0.901800	0.071200	0.078200
H971	H97	0.861700	0.027700	0.114700
H981	H98	0.954300	0.100300	0.113600
C1121	C112	0.972200	0.155300	0.158100
H991	H99	0.021500	0.160500	0.147300
H1001	H100	0.930900	0.097600	0.160000
H1011	H101	0.985200	0.180000	0.181500
C1131	C113	0.361600	0.459300	0.275600
O371	O37	0.408800	0.442700	0.255100
O381	O38	0.370900	0.488600	0.306500
O391	O39	0.113400	0.482900	0.305200
O401	O40	0.033800	0.442200	0.257360
C1141	C114	0.098900	0.455300	0.272200
C1151	C115	0.196300	0.394500	0.206380
C1161	C116	0.140600	0.410000	0.223400
H1021	H102	0.093900	0.403300	0.211200
C1171	C117	0.153200	0.435300	0.258200
C1181	C118	0.221600	0.445200	0.276080
H1031	H103	0.230200	0.462400	0.299900
C1191	C119	0.277300	0.429700	0.259000
C1201	C120	0.264700	0.404400	0.224200
H1041	H104	0.302800	0.393800	0.212500
Zn91	Zn9	0.050210	0.524930	0.333270
Zn101	Zn10	0.949990	0.474730	0.267930
O411	O41	0.888070	0.516830	0.295330
O421	O42	0.964070	0.555930	0.343430
C1211	C121	0.903870	0.542430	0.324530
C1221	C122	0.844670	0.564030	0.344790
C1231	C123	0.773270	0.547430	0.327640
H1051	H105	0.763270	0.526430	0.304330
C1241	C124	0.716370	0.561430	0.344530
C1251	C125	0.730970	0.592130	0.378570
H1061	H106	0.692070	0.601630	0.390130
C1261	C126	0.802370	0.608730	0.395730
C1271	C127	0.859270	0.594730	0.378830
H1071	H107	0.908070	0.606030	0.390530
C1281	C128	0.640570	0.547830	0.326830
O431	O43	0.632070	0.524830	0.295330
O441	O44	0.592670	0.558430	0.341630
C1291	C129	0.823670	0.654630	0.432030
C1301	C130	0.764170	0.617930	0.457730
C1311	C131	0.781070	0.645530	0.492230
H1081	H108	0.740470	0.620530	0.509830
C1321	C132	0.857570	0.709930	0.501030
C1331	C133	0.917070	0.746630	0.475330
C1341	C134	0.900170	0.719030	0.440830
H1091	H109	0.940870	0.744230	0.423230
O451	O45	0.984770	0.814130	0.485130
C1351	C135	0.050670	0.853830	0.506330
H1101	H110	0.051370	0.829430	0.529530
C1361	C136	0.131170	0.888930	0.480530
H1111	H111	0.169370	0.947530	0.484830
H1121	H112	0.160270	0.858230	0.483730
C1371	C137	0.091570	0.874330	0.442730
H1131	H113	0.055970	0.815730	0.438830
H1141	H114	0.134670	0.896330	0.424930
H1151	H115	0.059570	0.901830	0.441030
C1381	C138	0.052270	0.938230	0.505430
H1161	H116	0.031470	0.944330	0.482730
H1171	H117	0.108270	0.982830	0.508530
H1181	H118	0.017970	0.939630	0.524330
O461	O46	0.680670	0.566530	0.444330
C1391	C139	0.606070	0.532330	0.468530
H1191	H119	0.596070	0.573330	0.480630
C1401	C140	0.538770	0.473330	0.443030
H1201	H120	0.484170	0.447730	0.454030
H1211	H121	0.538370	0.501030	0.421030
C1411	C141	0.566570	0.412930	0.436830
H1221	H122	0.568470	0.404530	0.411530
H1231	H123	0.528370	0.361030	0.448030
H1241	H124	0.620970	0.433630	0.446930
C1421	C142	0.638870	0.488630	0.491430
H1251	H125	0.688170	0.493830	0.480630
H1261	H126	0.597570	0.430930	0.493330
H1271	H127	0.651870	0.513330	0.514830
C1431	C143	0.028270	0.792630	0.608930
O471	O47	0.075470	0.776030	0.588430
O481	O48	0.037570	0.821930	0.639830
O491	O49	0.780070	0.816230	0.638530
O501	O50	0.700470	0.775530	0.590690
C1441	C144	0.765570	0.788630	0.605530
C1451	C145	0.862970	0.727830	0.539710
C1461	C146	0.807270	0.743330	0.556730
H1281	H128	0.760570	0.736630	0.544530
C1471	C147	0.819870	0.768630	0.591530
C1481	C148	0.888270	0.778530	0.609410
H1291	H129	0.896870	0.795730	0.633230
C1491	C149	0.943970	0.763030	0.592330
C1501	C150	0.931370	0.737730	0.557530
H1301	H130	0.969470	0.727130	0.545830
Zn111	Zn11	0.716870	0.858270	0.666610
Zn121	Zn12	0.616650	0.808070	0.601270
O511	O51	0.554730	0.850170	0.628670
O521	O52	0.630730	0.889270	0.676770
C1511	C151	0.570530	0.875770	0.657870
C1521	C152	0.511330	0.897370	0.678130
C1531	C153	0.439930	0.880770	0.660980
H1311	H131	0.429930	0.859770	0.637670
C1541	C154	0.383030	0.894770	0.677870
C1551	C155	0.397630	0.925470	0.711910
H1321	H132	0.358730	0.934970	0.723470
C1561	C156	0.469030	0.942070	0.729070
C1571	C157	0.525930	0.928070	0.712170
H1331	H133	0.574730	0.939370	0.723870
C1581	C158	0.307230	0.881170	0.660170
O531	O53	0.298730	0.858170	0.628670
O541	O54	0.259330	0.891770	0.674970
C1591	C159	0.490330	0.987970	0.765370
C1601	C160	0.430830	0.951270	0.791070
C1611	C161	0.447730	0.978870	0.825570
H1341	H134	0.407130	0.953870	0.843170
C1621	C162	0.524230	0.043270	0.834370
C1631	C163	0.583730	0.079970	0.808670
C1641	C164	0.566830	0.052370	0.774170
H1351	H135	0.607530	0.077570	0.756570
O551	O55	0.651430	0.147470	0.818470
C1651	C165	0.717330	0.187170	0.839670
H1361	H136	0.718030	0.162770	0.862870
C1661	C166	0.797830	0.222270	0.813870
H1371	H137	0.836030	0.280870	0.818170
H1381	H138	0.826930	0.191570	0.817070
C1671	C167	0.758230	0.207670	0.776070
H1391	H139	0.722630	0.149070	0.772170
H1401	H140	0.801330	0.229670	0.758270
H1411	H141	0.726230	0.235170	0.774370
C1681	C168	0.718930	0.271570	0.838770
H1421	H142	0.698130	0.277670	0.816070
H1431	H143	0.774930	0.316170	0.841870
H1441	H144	0.684630	0.272970	0.857670
O561	O56	0.347330	0.899870	0.777670
C1691	C169	0.272730	0.865670	0.801870
H1451	H145	0.262730	0.906670	0.813970
C1701	C170	0.205430	0.806670	0.776370
H1461	H146	0.150830	0.781070	0.787370
H1471	H147	0.205030	0.834370	0.754370
C1711	C171	0.233230	0.746270	0.770170
H1481	H148	0.235130	0.737870	0.744870
H1491	H149	0.195030	0.694370	0.781370
H1501	H150	0.287630	0.766970	0.780270
C1721	C172	0.305530	0.821970	0.824770
H1511	H151	0.354830	0.827170	0.813970
H1521	H152	0.264230	0.764270	0.826670
H1531	H153	0.318530	0.846670	0.848170
C1731	C173	0.694930	0.125970	0.942270
O571	O57	0.742130	0.109370	0.921770
O581	O58	0.704230	0.155270	0.973170
O591	O59	0.446730	0.149570	0.971870
O601	O60	0.367130	0.108870	0.924030
C1741	C174	0.432230	0.121970	0.938870
C1751	C175	0.529630	0.061170	0.873050
C1761	C176	0.473930	0.076670	0.890070
H1541	H154	0.427230	0.069970	0.877870
C1771	C177	0.486530	0.101970	0.924870
C1781	C178	0.554930	0.111870	0.942750
H1551	H155	0.563530	0.129070	0.966570
C1791	C179	0.610630	0.096370	0.925670
C1801	C180	0.598030	0.071070	0.890870
H1561	H156	0.636130	0.060470	0.879170
Zn131	Zn13	0.808400	0.191940	0.999940
Zn141	Zn14	0.858600	0.141920	0.934600
O611	O61	0.816500	0.037900	0.962000
O621	O62	0.777400	0.074800	0.010100
C1811	C181	0.790900	0.028100	0.991200
C1821	C182	0.769300	0.947300	0.011460
C1831	C183	0.785900	0.892500	0.994310
H1571	H157	0.806900	0.903500	0.971000
C1841	C184	0.771900	0.821600	0.011200
C1851	C185	0.741200	0.805500	0.045240
H1581	H158	0.731700	0.757100	0.056800
C1861	C186	0.724600	0.860300	0.062400
C1871	C187	0.738600	0.931200	0.045500
H1591	H159	0.727300	0.968700	0.057200
C1881	C188	0.785500	0.759400	0.993500
O631	O63	0.808500	0.773900	0.962000
O641	O64	0.774900	0.700900	0.008300
C1891	C189	0.678700	0.835700	0.098700
C1901	C190	0.715400	0.812900	0.124400
C1911	C191	0.687800	0.802200	0.158900
H1601	H160	0.712800	0.786600	0.176500
C1921	C192	0.623400	0.814300	0.167700
C1931	C193	0.586700	0.837100	0.142000
C1941	C194	0.614300	0.847800	0.107500
H1611	H161	0.589100	0.863300	0.089900
O651	O65	0.519200	0.837300	0.151800
C1951	C195	0.479500	0.863500	0.173000
H1621	H162	0.503900	0.888600	0.196200
C1961	C196	0.444400	0.908900	0.147200
H1631	H163	0.385800	0.888500	0.151500
H1641	H164	0.475100	0.968700	0.150400
C1971	C197	0.459000	0.883900	0.109400
H1651	H165	0.517600	0.906900	0.105500
H1661	H166	0.437000	0.905000	0.091600
H1671	H167	0.431500	0.824400	0.107700
C1981	C198	0.395100	0.780700	0.172100
H1681	H168	0.389000	0.753800	0.149400
H1691	H169	0.350500	0.792100	0.175200
H1701	H170	0.393700	0.745000	0.191000
O661	O66	0.766800	0.780800	0.111000
C1991	C199	0.801000	0.740400	0.135200
H1711	H171	0.760000	0.689400	0.147300
C2001	C200	0.860000	0.732100	0.109700
H1721	H172	0.885600	0.703100	0.120700
H1731	H173	0.832300	0.704000	0.087700
C2011	C201	0.920400	0.820300	0.103500
H1741	H174	0.928800	0.830600	0.078200
H1751	H175	0.972300	0.834000	0.114700
H1761	H176	0.899700	0.854000	0.113600
C2021	C202	0.844700	0.816900	0.158100
H1771	H177	0.839500	0.861000	0.147300
H1781	H178	0.902400	0.833300	0.160000
H1791	H179	0.820000	0.805200	0.181500
C2031	C203	0.540700	0.902300	0.275600
O671	O67	0.557300	0.966100	0.255100
O681	O68	0.511400	0.882300	0.306500
O691	O69	0.517100	0.630500	0.305200
O701	O70	0.557800	0.591600	0.257360
C2041	C204	0.544700	0.643600	0.272200
C2051	C205	0.605500	0.801800	0.206380
C2061	C206	0.590000	0.730600	0.223400
H1801	H180	0.596700	0.690600	0.211200
C2071	C207	0.564700	0.717900	0.258200
C2081	C208	0.554800	0.776400	0.276080
H1811	H181	0.537600	0.767800	0.299900
C2091	C209	0.570300	0.847600	0.259000
C2101	C210	0.595600	0.860300	0.224200
H1821	H182	0.606200	0.909000	0.212500
Zn151	Zn15	0.475070	0.525270	0.333270
Zn161	Zn16	0.525270	0.475250	0.267930
O711	O71	0.483170	0.371230	0.295330
O721	O72	0.444070	0.408130	0.343430
C2111	C211	0.457570	0.361430	0.324530
C2121	C212	0.435970	0.280630	0.344790
C2131	C213	0.452570	0.225830	0.327640
H1831	H183	0.473570	0.236830	0.304330
C2141	C214	0.438570	0.154930	0.344530
C2151	C215	0.407870	0.138830	0.378570
H1841	H184	0.398370	0.090430	0.390130
C2161	C216	0.391270	0.193630	0.395730
C2171	C217	0.405270	0.264530	0.378830
H1851	H185	0.393970	0.302030	0.390530
C2181	C218	0.452170	0.092730	0.326830
O731	O73	0.475170	0.107230	0.295330
O741	O74	0.441570	0.034230	0.341630
C2191	C219	0.345370	0.169030	0.432030
C2201	C220	0.382070	0.146230	0.457730
C2211	C221	0.354470	0.135530	0.492230
H1861	H186	0.379470	0.119930	0.509830
C2221	C222	0.290070	0.147630	0.501030
C2231	C223	0.253370	0.170430	0.475330
C2241	C224	0.280970	0.181130	0.440830
H1871	H187	0.255770	0.196630	0.423230
O751	O75	0.185870	0.170630	0.485130
C2251	C225	0.146170	0.196830	0.506330
H1881	H188	0.170570	0.221930	0.529530
C2261	C226	0.111070	0.242230	0.480530
H1891	H189	0.052470	0.221830	0.484830
H1901	H190	0.141770	0.302030	0.483730
C2271	C227	0.125670	0.217230	0.442730
H1911	H191	0.184270	0.240230	0.438830
H1921	H192	0.103670	0.238330	0.424930
H1931	H193	0.098170	0.157730	0.441030
C2281	C228	0.061770	0.114030	0.505430
H1941	H194	0.055670	0.087130	0.482730
H1951	H195	0.017170	0.125430	0.508530
H1961	H196	0.060370	0.078330	0.524330
O761	O76	0.433470	0.114130	0.444330
C2291	C229	0.467670	0.073730	0.468530
H1971	H197	0.426670	0.022730	0.480630
C2301	C230	0.526670	0.065430	0.443030
H1981	H198	0.552270	0.036430	0.454030
H1991	H199	0.498970	0.037330	0.421030
C2311	C231	0.587070	0.153630	0.436830
H2001	H200	0.595470	0.163930	0.411530
H2011	H201	0.638970	0.167330	0.448030
H2021	H202	0.566370	0.187330	0.446930
C2321	C232	0.511370	0.150230	0.491430
H2031	H203	0.506170	0.194330	0.480630
H2041	H204	0.569070	0.166630	0.493330
H2051	H205	0.486670	0.138530	0.514830
C2331	C233	0.207370	0.235630	0.608930
O771	O77	0.223970	0.299430	0.588430
O781	O78	0.178070	0.215630	0.639830
O791	O79	0.183770	0.963830	0.638530
O801	O80	0.224470	0.924930	0.590690
C2341	C234	0.211370	0.976930	0.605530
C2351	C235	0.272170	0.135130	0.539710
C2361	C236	0.256670	0.063930	0.556730
H2061	H206	0.263370	0.023930	0.544530
C2371	C237	0.231370	0.051230	0.591530
C2381	C238	0.221470	0.109730	0.609410
H2071	H207	0.204270	0.101130	0.633230
C2391	C239	0.236970	0.180930	0.592330
C2401	C240	0.262270	0.193630	0.557530
H2081	H208	0.272870	0.242330	0.545830
Zn171	Zn17	0.141730	0.858610	0.666610
Zn181	Zn18	0.191930	0.808590	0.601270
O811	O81	0.149830	0.704570	0.628670
O821	O82	0.110730	0.741470	0.676770
C2411	C241	0.124230	0.694770	0.657870
C2421	C242	0.102630	0.613970	0.678130
C2431	C243	0.119230	0.559170	0.660980
H2091	H209	0.140230	0.570170	0.637670
C2441	C244	0.105230	0.488270	0.677870
C2451	C245	0.074530	0.472170	0.711910
H2101	H210	0.065030	0.423770	0.723470
C2461	C246	0.057930	0.526970	0.729070
C2471	C247	0.071930	0.597870	0.712170
H2111	H211	0.060630	0.635370	0.723870
C2481	C248	0.118830	0.426070	0.660170
O831	O83	0.141830	0.440570	0.628670
O841	O84	0.108230	0.367570	0.674970
C2491	C249	0.012030	0.502370	0.765370
C2501	C250	0.048730	0.479570	0.791070
C2511	C251	0.021130	0.468870	0.825570
H2121	H212	0.046130	0.453270	0.843170
C2521	C252	0.956730	0.480970	0.834370
C2531	C253	0.920030	0.503770	0.808670
C2541	C254	0.947630	0.514470	0.774170
H2131	H213	0.922430	0.529970	0.756570
O851	O85	0.852530	0.503970	0.818470
C2551	C255	0.812830	0.530170	0.839670
H2141	H214	0.837230	0.555270	0.862870
C2561	C256	0.777730	0.575570	0.813870
H2151	H215	0.719130	0.555170	0.818170
H2161	H216	0.808430	0.635370	0.817070
C2571	C257	0.792330	0.550570	0.776070
H2171	H217	0.850930	0.573570	0.772170
H2181	H218	0.770330	0.571670	0.758270
H2191	H219	0.764830	0.491070	0.774370
C2581	C258	0.728430	0.447370	0.838770
H2201	H220	0.722330	0.420470	0.816070
H2211	H221	0.683830	0.458770	0.841870
H2221	H222	0.727030	0.411670	0.857670
O861	O86	0.100130	0.447470	0.777670
C2591	C259	0.134330	0.407070	0.801870
H2231	H223	0.093330	0.356070	0.813970
C2601	C260	0.193330	0.398770	0.776370
H2241	H224	0.218930	0.369770	0.787370
H2251	H225	0.165630	0.370670	0.754370
C2611	C261	0.253730	0.486970	0.770170
H2261	H226	0.262130	0.497270	0.744870
H2271	H227	0.305630	0.500670	0.781370
H2281	H228	0.233030	0.520670	0.780270
C2621	C262	0.178030	0.483570	0.824770
H2291	H229	0.172830	0.527670	0.813970
H2301	H230	0.235730	0.499970	0.826670
H2311	H231	0.153330	0.471870	0.848170
C2631	C263	0.874030	0.568970	0.942270
O871	O87	0.890630	0.632770	0.921770
O881	O88	0.844730	0.548970	0.973170
O891	O89	0.850430	0.297170	0.971870
O901	O90	0.891130	0.258270	0.924030
C2641	C264	0.878030	0.310270	0.938870
C2651	C265	0.938830	0.468470	0.873050
C2661	C266	0.923330	0.397270	0.890070
H2321	H232	0.930030	0.357270	0.877870
C2671	C267	0.898030	0.384570	0.924870
C2681	C268	0.888130	0.443070	0.942750
H2331	H233	0.870930	0.434470	0.966570
C2691	C269	0.903630	0.514270	0.925670
C2701	C270	0.928930	0.526970	0.890870
H2341	H234	0.939530	0.575670	0.879170
