data_YAWBAC_clean_PM
_symmetry_space_group_name_H-M	'P1'
_cell_length_a	18.832300
_cell_length_b	18.832300
_cell_length_c	38.495800
_cell_angle_alpha	90.000000
_cell_angle_beta	90.000000
_cell_angle_gamma	120.000000
_symmetry_Int_Tables_number 1

loop_
_symmetry_equiv_pos_as_xyz
'x,y,z'

loop_
_atom_site_label
_atom_site_type_symbol
_atom_site_fract_x
_atom_site_fract_y
_atom_site_fract_z
Zn11	Zn1	0.807500	0.615320	0.999400
Zn21	Zn2	0.859160	0.718300	0.935310
O11	O1	0.966300	0.775900	0.964900
O21	O2	0.925700	0.695200	0.010700
C11	C1	0.973700	0.759300	0.995500
C21	C2	0.050400	0.820900	0.012650
C31	C3	0.105300	0.893600	0.996130
H11	H1	0.094000	0.904600	0.973300
C41	C4	0.176700	0.950200	0.013000
C51	C5	0.193200	0.934200	0.046300
H21	H2	0.242000	0.972900	0.057900
C61	C6	0.138300	0.861500	0.062860
C71	C7	0.066900	0.804800	0.046020
H31	H3	0.029400	0.755100	0.057300
C81	C8	0.243400	0.033100	0.997400
O31	O3	0.221500	0.039500	0.962600
O41	O4	0.310900	0.081400	0.012300
C91	C9	0.167200	0.842900	0.096700
C101	C10	0.186400	0.902800	0.121900
C111	C11	0.195800	0.886900	0.156300
H41	H4	0.209000	0.927800	0.173500
C121	C12	0.186000	0.811100	0.165600
C131	C13	0.166700	0.751300	0.140400
C141	C14	0.157300	0.767100	0.106000
H51	H5	0.144200	0.726200	0.088800
O51	O5	0.150100	0.670800	0.150700
C151	C15	0.179600	0.615300	0.164800
H61	H6	0.203800	0.598400	0.146000
H71	H7	0.221900	0.644100	0.182900
C161	C16	0.107800	0.543200	0.179700
H81	H8	0.066500	0.558000	0.187800
C171	C17	0.069000	0.472700	0.152700
C181	C18	0.134900	0.507900	0.210500
C191	C19	0.144900	0.452500	0.149500
O61	O6	0.225400	0.993100	0.116000
C201	C20	0.234000	0.046500	0.145500
H91	H9	0.287400	0.066300	0.157300
H101	H10	0.189500	0.016700	0.162600
C211	C21	0.228600	0.117200	0.129900
H111	H11	0.176200	0.094000	0.116600
C221	C22	0.233700	0.185100	0.153500
C231	C23	0.298600	0.155300	0.104200
O71	O7	0.034000	0.591400	0.257610
O81	O8	0.111700	0.633700	0.303000
C241	C24	0.096600	0.645600	0.275900
O91	O9	0.369000	0.886500	0.304900
O101	O10	0.410300	0.965100	0.256700
C251	C25	0.358200	0.900900	0.274600
C261	C26	0.197000	0.805300	0.206070
C271	C27	0.268200	0.861300	0.223210
H121	H12	0.308300	0.908900	0.211400
C281	C28	0.280700	0.847600	0.257500
C291	C29	0.222000	0.778000	0.274800
H131	H13	0.230500	0.768700	0.298300
C301	C30	0.150700	0.722100	0.257600
C311	C31	0.138200	0.735700	0.223300
H141	H14	0.089500	0.697500	0.211600
Zn31	Zn3	0.474170	0.948650	0.332730
Zn41	Zn4	0.525830	0.051630	0.268640
O111	O11	0.632970	0.109230	0.298230
O121	O12	0.592370	0.028530	0.344030
C321	C32	0.640370	0.092630	0.328830
C331	C33	0.717070	0.154230	0.345980
C341	C34	0.771970	0.226930	0.329460
H151	H15	0.760670	0.237930	0.306630
C351	C35	0.843370	0.283530	0.346330
C361	C36	0.859870	0.267530	0.379630
H161	H16	0.908670	0.306230	0.391230
C371	C37	0.804970	0.194830	0.396190
C381	C38	0.733570	0.138130	0.379350
H171	H17	0.696070	0.088430	0.390630
C391	C39	0.910070	0.366430	0.330730
O131	O13	0.888170	0.372830	0.295930
O141	O14	0.977570	0.414730	0.345630
C401	C40	0.833870	0.176230	0.430030
C411	C41	0.853070	0.236130	0.455230
C421	C42	0.862470	0.220230	0.489630
H181	H18	0.875670	0.261130	0.506830
C431	C43	0.852670	0.144430	0.498930
C441	C44	0.833370	0.084630	0.473730
C451	C45	0.823970	0.100430	0.439330
H191	H19	0.810870	0.059530	0.422130
O151	O15	0.816770	0.004130	0.484030
C461	C46	0.846270	0.948630	0.498130
H201	H20	0.870470	0.931730	0.479330
H211	H21	0.888570	0.977430	0.516230
C471	C47	0.774470	0.876530	0.513030
H221	H22	0.733170	0.891330	0.521130
C481	C48	0.735670	0.806030	0.486030
C491	C49	0.801570	0.841230	0.543830
C501	C50	0.811570	0.785830	0.482830
O161	O16	0.892070	0.326430	0.449330
C511	C51	0.900670	0.379830	0.478830
H231	H23	0.954070	0.399630	0.490630
H241	H24	0.856170	0.350030	0.495930
C521	C52	0.895270	0.450530	0.463230
H251	H25	0.842870	0.427330	0.449930
C531	C53	0.900370	0.518430	0.486830
C541	C54	0.965270	0.488630	0.437530
O171	O17	0.700670	0.924730	0.590940
O181	O18	0.778370	0.967030	0.636330
C551	C55	0.763270	0.978930	0.609230
O191	O19	0.035670	0.219830	0.638230
O201	O20	0.076970	0.298430	0.590030
C561	C56	0.024870	0.234230	0.607930
C571	C57	0.863670	0.138630	0.539400
C581	C58	0.934870	0.194630	0.556540
H261	H26	0.974970	0.242230	0.544730
C591	C59	0.947370	0.180930	0.590830
C601	C60	0.888670	0.111330	0.608130
H271	H27	0.897170	0.102030	0.631630
C611	C61	0.817370	0.055430	0.590930
C621	C62	0.804870	0.069030	0.556630
H281	H28	0.756170	0.030830	0.544930
Zn51	Zn5	0.140830	0.281990	0.666070
Zn61	Zn6	0.192490	0.384970	0.601980
O211	O21	0.299630	0.442570	0.631570
O221	O22	0.259030	0.361870	0.677370
C631	C63	0.307030	0.425970	0.662170
C641	C64	0.383730	0.487570	0.679320
C651	C65	0.438630	0.560270	0.662800
H291	H29	0.427330	0.571270	0.639970
C661	C66	0.510030	0.616870	0.679670
C671	C67	0.526530	0.600870	0.712970
H301	H30	0.575330	0.639570	0.724570
C681	C68	0.471630	0.528170	0.729530
C691	C69	0.400230	0.471470	0.712690
H311	H31	0.362730	0.421770	0.723970
C701	C70	0.576730	0.699770	0.664070
O231	O23	0.554830	0.706170	0.629270
O241	O24	0.644230	0.748070	0.678970
C711	C71	0.500530	0.509570	0.763370
C721	C72	0.519730	0.569470	0.788570
C731	C73	0.529130	0.553570	0.822970
H321	H32	0.542330	0.594470	0.840170
C741	C74	0.519330	0.477770	0.832270
C751	C75	0.500030	0.417970	0.807070
C761	C76	0.490630	0.433770	0.772670
H331	H33	0.477530	0.392870	0.755470
O251	O25	0.483430	0.337470	0.817370
C771	C77	0.512930	0.281970	0.831470
H341	H34	0.537130	0.265070	0.812670
H351	H35	0.555230	0.310770	0.849570
C781	C78	0.441130	0.209870	0.846370
H361	H36	0.399830	0.224670	0.854470
C791	C79	0.402330	0.139370	0.819370
C801	C80	0.468230	0.174570	0.877170
C811	C81	0.478230	0.119170	0.816170
O261	O26	0.558730	0.659770	0.782670
C821	C82	0.567330	0.713170	0.812170
H371	H37	0.620730	0.732970	0.823970
H381	H38	0.522830	0.683370	0.829270
C831	C83	0.561930	0.783870	0.796570
H391	H39	0.509530	0.760670	0.783270
C841	C84	0.567030	0.851770	0.820170
C851	C85	0.631930	0.821970	0.770870
O271	O27	0.367330	0.258070	0.924280
O281	O28	0.445030	0.300370	0.969670
C861	C86	0.429930	0.312270	0.942570
O291	O29	0.702330	0.553170	0.971570
O301	O30	0.743630	0.631770	0.923370
C871	C87	0.691530	0.567570	0.941270
C881	C88	0.530330	0.471970	0.872740
C891	C89	0.601530	0.527970	0.889880
H401	H40	0.641630	0.575570	0.878070
C901	C90	0.614030	0.514270	0.924170
C911	C91	0.555330	0.444670	0.941470
H411	H41	0.563830	0.435370	0.964970
C921	C92	0.484030	0.388770	0.924270
C931	C93	0.471530	0.402370	0.889970
H421	H42	0.422830	0.364170	0.878270
Zn71	Zn7	0.384680	0.192180	0.999400
Zn81	Zn8	0.281700	0.140860	0.935310
O311	O31	0.224100	0.190400	0.964900
O321	O32	0.304800	0.230500	0.010700
C941	C94	0.240700	0.214400	0.995500
C951	C95	0.179100	0.229500	0.012650
C961	C96	0.106400	0.211700	0.996130
H431	H43	0.095400	0.189400	0.973300
C971	C97	0.049800	0.226500	0.013000
C981	C98	0.065800	0.259000	0.046300
H441	H44	0.027100	0.269100	0.057900
C991	C99	0.138500	0.276800	0.062860
C1001	C100	0.195200	0.262100	0.046020
H451	H45	0.244900	0.274300	0.057300
C1011	C101	0.966900	0.210300	0.997400
O331	O33	0.960500	0.182000	0.962600
O341	O34	0.918600	0.229500	0.012300
C1021	C102	0.157100	0.324300	0.096700
C1031	C103	0.097200	0.283600	0.121900
C1041	C104	0.113100	0.308900	0.156300
H461	H46	0.072200	0.281200	0.173500
C1051	C105	0.188900	0.374900	0.165600
C1061	C106	0.248700	0.415400	0.140400
C1071	C107	0.232900	0.390200	0.106000
H471	H47	0.273800	0.418000	0.088800
O351	O35	0.329200	0.479300	0.150700
C1081	C108	0.384700	0.564300	0.164800
H481	H48	0.401600	0.605400	0.146000
H491	H49	0.355900	0.577800	0.182900
C1091	C109	0.456800	0.564600	0.179700
H501	H50	0.442000	0.508500	0.187800
C1101	C110	0.527300	0.596300	0.152700
C1111	C111	0.492100	0.627000	0.210500
C1121	C112	0.547500	0.692400	0.149500
O361	O36	0.006900	0.232300	0.116000
C1131	C113	0.953500	0.187500	0.145500
H511	H51	0.933700	0.221100	0.157300
H521	H52	0.983300	0.172800	0.162600
C1141	C114	0.882800	0.111400	0.129900
H531	H53	0.906000	0.082200	0.116600
C1151	C115	0.814900	0.048600	0.153500
C1161	C116	0.844700	0.143300	0.104200
O371	O37	0.408600	0.442600	0.257610
O381	O38	0.366300	0.478000	0.303000
C1171	C117	0.354400	0.451000	0.275900
O391	O39	0.113500	0.482500	0.304900
O401	O40	0.034900	0.445200	0.256700
C1181	C118	0.099100	0.457300	0.274600
C1191	C119	0.194700	0.391700	0.206070
C1201	C120	0.138700	0.406900	0.223210
H541	H54	0.091100	0.399400	0.211400
C1211	C121	0.152400	0.433100	0.257500
C1221	C122	0.222000	0.444000	0.274800
H551	H55	0.231300	0.461800	0.298300
C1231	C123	0.277900	0.428600	0.257600
C1241	C124	0.264300	0.402500	0.223300
H561	H56	0.302500	0.392000	0.211600
Zn91	Zn9	0.051350	0.525510	0.332730
Zn101	Zn10	0.948370	0.474190	0.268640
O411	O41	0.890770	0.523730	0.298230
O421	O42	0.971470	0.563830	0.344030
C1251	C125	0.907370	0.547730	0.328830
C1261	C126	0.845770	0.562830	0.345980
C1271	C127	0.773070	0.545030	0.329460
H571	H57	0.762070	0.522730	0.306630
C1281	C128	0.716470	0.559830	0.346330
C1291	C129	0.732470	0.592330	0.379630
H581	H58	0.693770	0.602430	0.391230
C1301	C130	0.805170	0.610130	0.396190
C1311	C131	0.861870	0.595430	0.379350
H591	H59	0.911570	0.607630	0.390630
C1321	C132	0.633570	0.543630	0.330730
O431	O43	0.627170	0.515330	0.295930
O441	O44	0.585270	0.562830	0.345630
C1331	C133	0.823770	0.657630	0.430030
C1341	C134	0.763870	0.616930	0.455230
C1351	C135	0.779770	0.642230	0.489630
H601	H60	0.738870	0.614530	0.506830
C1361	C136	0.855570	0.708230	0.498930
C1371	C137	0.915370	0.748730	0.473730
C1381	C138	0.899570	0.723530	0.439330
H611	H61	0.940470	0.751330	0.422130
O451	O45	0.995870	0.812630	0.484030
C1391	C139	0.051370	0.897630	0.498130
H621	H62	0.068270	0.938730	0.479330
H631	H63	0.022570	0.911130	0.516230
C1401	C140	0.123470	0.897930	0.513030
H641	H64	0.108670	0.841830	0.521130
C1411	C141	0.193970	0.929630	0.486030
C1421	C142	0.158770	0.960330	0.543830
C1431	C143	0.214170	0.025730	0.482830
O461	O46	0.673570	0.565630	0.449330
C1441	C144	0.620170	0.520830	0.478830
H651	H65	0.600370	0.554430	0.490630
H661	H66	0.649970	0.506130	0.495930
C1451	C145	0.549470	0.444730	0.463230
H671	H67	0.572670	0.415530	0.449930
C1461	C146	0.481570	0.381930	0.486830
C1471	C147	0.511370	0.476630	0.437530
O471	O47	0.075270	0.775930	0.590940
O481	O48	0.032970	0.811330	0.636330
C1481	C148	0.021070	0.784330	0.609230
O491	O49	0.780170	0.815830	0.638230
O501	O50	0.701570	0.778530	0.590030
C1491	C149	0.765770	0.790630	0.607930
C1501	C150	0.861370	0.725030	0.539400
C1511	C151	0.805370	0.740230	0.556540
H681	H68	0.757770	0.732730	0.544730
C1521	C152	0.819070	0.766430	0.590830
C1531	C153	0.888670	0.777330	0.608130
H691	H69	0.897970	0.795130	0.631630
C1541	C154	0.944570	0.761930	0.590930
C1551	C155	0.930970	0.735830	0.556630
H701	H70	0.969170	0.725330	0.544930
Zn111	Zn11	0.718010	0.858850	0.666070
Zn121	Zn12	0.615030	0.807530	0.601980
O511	O51	0.557430	0.857070	0.631570
O521	O52	0.638130	0.897170	0.677370
C1561	C156	0.574030	0.881070	0.662170
C1571	C157	0.512430	0.896170	0.679320
C1581	C158	0.439730	0.878370	0.662800
H711	H71	0.428730	0.856070	0.639970
C1591	C159	0.383130	0.893170	0.679670
C1601	C160	0.399130	0.925670	0.712970
H721	H72	0.360430	0.935770	0.724570
C1611	C161	0.471830	0.943470	0.729530
C1621	C162	0.528530	0.928770	0.712690
H731	H73	0.578230	0.940970	0.723970
C1631	C163	0.300230	0.876970	0.664070
O531	O53	0.293830	0.848670	0.629270
O541	O54	0.251930	0.896170	0.678970
C1641	C164	0.490430	0.990970	0.763370
C1651	C165	0.430530	0.950270	0.788570
C1661	C166	0.446430	0.975570	0.822970
H741	H74	0.405530	0.947870	0.840170
C1671	C167	0.522230	0.041570	0.832270
C1681	C168	0.582030	0.082070	0.807070
C1691	C169	0.566230	0.056870	0.772670
H751	H75	0.607130	0.084670	0.755470
O551	O55	0.662530	0.145970	0.817370
C1701	C170	0.718030	0.230970	0.831470
H761	H76	0.734930	0.272070	0.812670
H771	H77	0.689230	0.244470	0.849570
C1711	C171	0.790130	0.231270	0.846370
H781	H78	0.775330	0.175170	0.854470
C1721	C172	0.860630	0.262970	0.819370
C1731	C173	0.825430	0.293670	0.877170
C1741	C174	0.880830	0.359070	0.816170
O561	O56	0.340230	0.898970	0.782670
C1751	C175	0.286830	0.854170	0.812170
H791	H79	0.267030	0.887770	0.823970
H801	H80	0.316630	0.839470	0.829270
C1761	C176	0.216130	0.778070	0.796570
H811	H81	0.239330	0.748870	0.783270
C1771	C177	0.148230	0.715270	0.820170
C1781	C178	0.178030	0.809970	0.770870
O571	O57	0.741930	0.109270	0.924280
O581	O58	0.699630	0.144670	0.969670
C1791	C179	0.687730	0.117670	0.942570
O591	O59	0.446830	0.149170	0.971570
O601	O60	0.368230	0.111870	0.923370
C1801	C180	0.432430	0.123970	0.941270
C1811	C181	0.528030	0.058370	0.872740
C1821	C182	0.472030	0.073570	0.889880
H821	H82	0.424430	0.066070	0.878070
C1831	C183	0.485730	0.099770	0.924170
C1841	C184	0.555330	0.110670	0.941470
H831	H83	0.564630	0.128470	0.964970
C1851	C185	0.611230	0.095270	0.924270
C1861	C186	0.597630	0.069170	0.889970
H841	H84	0.635830	0.058670	0.878270
Zn131	Zn13	0.807820	0.192500	0.999400
Zn141	Zn14	0.859140	0.140840	0.935310
O611	O61	0.809600	0.033700	0.964900
O621	O62	0.769500	0.074300	0.010700
C1871	C187	0.785600	0.026300	0.995500
C1881	C188	0.770500	0.949600	0.012650
C1891	C189	0.788300	0.894700	0.996130
H851	H85	0.810600	0.906000	0.973300
C1901	C190	0.773500	0.823300	0.013000
C1911	C191	0.741000	0.806800	0.046300
H861	H86	0.730900	0.758000	0.057900
C1921	C192	0.723200	0.861700	0.062860
C1931	C193	0.737900	0.933100	0.046020
H871	H87	0.725700	0.970600	0.057300
C1941	C194	0.789700	0.756600	0.997400
O631	O63	0.818000	0.778500	0.962600
O641	O64	0.770500	0.689100	0.012300
C1951	C195	0.675700	0.832800	0.096700
C1961	C196	0.716400	0.813600	0.121900
C1971	C197	0.691100	0.804200	0.156300
H881	H88	0.718800	0.791000	0.173500
C1981	C198	0.625100	0.814000	0.165600
C1991	C199	0.584600	0.833300	0.140400
C2001	C200	0.609800	0.842700	0.106000
H891	H89	0.582000	0.855800	0.088800
O651	O65	0.520700	0.849900	0.150700
C2011	C201	0.435700	0.820400	0.164800
H901	H90	0.394600	0.796200	0.146000
H911	H91	0.422200	0.778100	0.182900
C2021	C202	0.435400	0.892200	0.179700
H921	H92	0.491500	0.933500	0.187800
C2031	C203	0.403700	0.931000	0.152700
C2041	C204	0.373000	0.865100	0.210500
C2051	C205	0.307600	0.855100	0.149500
O661	O66	0.767700	0.774600	0.116000
C2061	C206	0.812500	0.766000	0.145500
H931	H93	0.778900	0.712600	0.157300
H941	H94	0.827200	0.810500	0.162600
C2071	C207	0.888600	0.771400	0.129900
H951	H95	0.917800	0.823800	0.116600
C2081	C208	0.951400	0.766300	0.153500
C2091	C209	0.856700	0.701400	0.104200
O671	O67	0.557400	0.966000	0.257610
O681	O68	0.522000	0.888300	0.303000
C2101	C210	0.549000	0.903400	0.275900
O691	O69	0.517500	0.631000	0.304900
O701	O70	0.554800	0.589700	0.256700
C2111	C211	0.542700	0.641800	0.274600
C2121	C212	0.608300	0.803000	0.206070
C2131	C213	0.593100	0.731800	0.223210
H961	H96	0.600600	0.691700	0.211400
C2141	C214	0.566900	0.719300	0.257500
C2151	C215	0.556000	0.778000	0.274800
H971	H97	0.538200	0.769500	0.298300
C2161	C216	0.571400	0.849300	0.257600
C2171	C217	0.597500	0.861800	0.223300
H981	H98	0.608000	0.910500	0.211600
Zn151	Zn15	0.474490	0.525830	0.332730
Zn161	Zn16	0.525810	0.474170	0.268640
O711	O71	0.476270	0.367030	0.298230
O721	O72	0.436170	0.407630	0.344030
C2181	C218	0.452270	0.359630	0.328830
C2191	C219	0.437170	0.282930	0.345980
C2201	C220	0.454970	0.228030	0.329460
H991	H99	0.477270	0.239330	0.306630
C2211	C221	0.440170	0.156630	0.346330
C2221	C222	0.407670	0.140130	0.379630
H1001	H100	0.397570	0.091330	0.391230
C2231	C223	0.389870	0.195030	0.396190
C2241	C224	0.404570	0.266430	0.379350
H1011	H101	0.392370	0.303930	0.390630
C2251	C225	0.456370	0.089930	0.330730
O731	O73	0.484670	0.111830	0.295930
O741	O74	0.437170	0.022430	0.345630
C2261	C226	0.342370	0.166130	0.430030
C2271	C227	0.383070	0.146930	0.455230
C2281	C228	0.357770	0.137530	0.489630
H1021	H102	0.385470	0.124330	0.506830
C2291	C229	0.291770	0.147330	0.498930
C2301	C230	0.251270	0.166630	0.473730
C2311	C231	0.276470	0.176030	0.439330
H1031	H103	0.248670	0.189130	0.422130
O751	O75	0.187370	0.183230	0.484030
C2321	C232	0.102370	0.153730	0.498130
H1041	H104	0.061270	0.129530	0.479330
H1051	H105	0.088870	0.111430	0.516230
C2331	C233	0.102070	0.225530	0.513030
H1061	H106	0.158170	0.266830	0.521130
C2341	C234	0.070370	0.264330	0.486030
C2351	C235	0.039670	0.198430	0.543830
C2361	C236	0.974270	0.188430	0.482830
O761	O76	0.434370	0.107930	0.449330
C2371	C237	0.479170	0.099330	0.478830
H1071	H107	0.445570	0.045930	0.490630
H1081	H108	0.493870	0.143830	0.495930
C2381	C238	0.555270	0.104730	0.463230
H1091	H109	0.584470	0.157130	0.449930
C2391	C239	0.618070	0.099630	0.486830
C2401	C240	0.523370	0.034730	0.437530
O771	O77	0.224070	0.299330	0.590940
O781	O78	0.188670	0.221630	0.636330
C2411	C241	0.215670	0.236730	0.609230
O791	O79	0.184170	0.964330	0.638230
O801	O80	0.221470	0.923030	0.590030
C2421	C242	0.209370	0.975130	0.607930
C2431	C243	0.274970	0.136330	0.539400
C2441	C244	0.259770	0.065130	0.556540
H1101	H110	0.267270	0.025030	0.544730
C2451	C245	0.233570	0.052630	0.590830
C2461	C246	0.222670	0.111330	0.608130
H1111	H111	0.204870	0.102830	0.631630
C2471	C247	0.238070	0.182630	0.590930
C2481	C248	0.264170	0.195130	0.556630
H1121	H112	0.274670	0.243830	0.544930
Zn171	Zn17	0.141150	0.859170	0.666070
Zn181	Zn18	0.192470	0.807510	0.601980
O811	O81	0.142930	0.700370	0.631570
O821	O82	0.102830	0.740970	0.677370
C2491	C249	0.118930	0.692970	0.662170
C2501	C250	0.103830	0.616270	0.679320
C2511	C251	0.121630	0.561370	0.662800
H1131	H113	0.143930	0.572670	0.639970
C2521	C252	0.106830	0.489970	0.679670
C2531	C253	0.074330	0.473470	0.712970
H1141	H114	0.064230	0.424670	0.724570
C2541	C254	0.056530	0.528370	0.729530
C2551	C255	0.071230	0.599770	0.712690
H1151	H115	0.059030	0.637270	0.723970
C2561	C256	0.123030	0.423270	0.664070
O831	O83	0.151330	0.445170	0.629270
O841	O84	0.103830	0.355770	0.678970
C2571	C257	0.009030	0.499470	0.763370
C2581	C258	0.049730	0.480270	0.788570
C2591	C259	0.024430	0.470870	0.822970
H1161	H116	0.052130	0.457670	0.840170
C2601	C260	0.958430	0.480670	0.832270
C2611	C261	0.917930	0.499970	0.807070
C2621	C262	0.943130	0.509370	0.772670
H1171	H117	0.915330	0.522470	0.755470
O851	O85	0.854030	0.516570	0.817370
C2631	C263	0.769030	0.487070	0.831470
H1181	H118	0.727930	0.462870	0.812670
H1191	H119	0.755530	0.444770	0.849570
C2641	C264	0.768730	0.558870	0.846370
H1201	H120	0.824830	0.600170	0.854470
C2651	C265	0.737030	0.597670	0.819370
C2661	C266	0.706330	0.531770	0.877170
C2671	C267	0.640930	0.521770	0.816170
O861	O86	0.101030	0.441270	0.782670
C2681	C268	0.145830	0.432670	0.812170
H1211	H121	0.112230	0.379270	0.823970
H1221	H122	0.160530	0.477170	0.829270
C2691	C269	0.221930	0.438070	0.796570
H1231	H123	0.251130	0.490470	0.783270
C2701	C270	0.284730	0.432970	0.820170
C2711	C271	0.190030	0.368070	0.770870
O871	O87	0.890730	0.632670	0.924280
O881	O88	0.855330	0.554970	0.969670
C2721	C272	0.882330	0.570070	0.942570
O891	O89	0.850830	0.297670	0.971570
O901	O90	0.888130	0.256370	0.923370
C2731	C273	0.876030	0.308470	0.941270
C2741	C274	0.941630	0.469670	0.872740
C2751	C275	0.926430	0.398470	0.889880
H1241	H124	0.933930	0.358370	0.878070
C2761	C276	0.900230	0.385970	0.924170
C2771	C277	0.889330	0.444670	0.941470
H1251	H125	0.871530	0.436170	0.964970
C2781	C278	0.904730	0.515970	0.924270
C2791	C279	0.930830	0.528470	0.889970
H1261	H126	0.941330	0.577170	0.878270
