data_YAWFEI_charged_PM
_symmetry_space_group_name_H-M	'P1'
_cell_length_a	8.862200
_cell_length_b	19.101400
_cell_length_c	14.861200
_cell_angle_alpha	86.443400
_cell_angle_beta	84.820500
_cell_angle_gamma	84.531600
_symmetry_Int_Tables_number 1

loop_
_symmetry_equiv_pos_as_xyz
'x,y,z'

loop_
_atom_site_label
_atom_site_type_symbol
_atom_site_fract_x
_atom_site_fract_y
_atom_site_fract_z
Cd11	Cd1	0.704610	0.701000	0.921500
Cd21	Cd2	0.130470	0.978700	0.703580
Cd31	Cd3	0.253470	0.529710	0.832460
Cd41	Cd4	0.691950	0.829800	0.567940
Cd51	Cd5	0.153440	0.851850	0.043530
Cd61	Cd6	0.295390	0.299000	0.078500
Cd71	Cd7	0.869530	0.021300	0.296420
Cd81	Cd8	0.746530	0.470290	0.167540
Cd91	Cd9	0.308050	0.170200	0.432060
Cd101	Cd10	0.846560	0.148150	0.956470
C11	C1	0.446600	0.592100	0.851700
C21	C2	0.952400	0.801100	0.010300
C31	C3	0.730600	0.568600	0.083400
C41	C4	0.373500	0.790600	0.015100
C51	C5	0.039800	0.598700	0.855300
C61	C6	0.177300	0.948400	0.846000
C71	C7	0.116200	0.911400	0.165500
C81	C8	0.880200	0.884800	0.614000
C91	C9	0.461100	0.879300	0.609600
C101	C10	0.730600	0.717200	0.536600
C111	C11	0.218200	0.069000	0.622400
C121	C12	0.553400	0.407900	0.148300
C131	C13	0.047600	0.198900	0.989700
C141	C14	0.269400	0.431400	0.916600
C151	C15	0.626500	0.209400	0.984900
C161	C16	0.960200	0.401300	0.144700
C171	C17	0.822700	0.051600	0.154000
C181	C18	0.883800	0.088600	0.834500
C191	C19	0.119800	0.115200	0.386000
C201	C20	0.538900	0.120700	0.390400
C211	C21	0.269400	0.282800	0.463400
C221	C22	0.781800	0.931000	0.377600
N11	N1	0.537900	0.626300	0.865600
N21	N2	0.854400	0.775900	0.988200
N31	N3	0.719700	0.619800	0.041800
N41	N4	0.488300	0.762800	0.991800
N51	N5	0.931200	0.634900	0.865200
N61	N6	0.179300	0.929100	0.918300
N71	N7	0.085800	0.943800	0.226800
N81	N8	0.967400	0.915700	0.643000
N91	N9	0.348300	0.903100	0.638600
N101	N10	0.739500	0.660800	0.531000
N111	N11	0.260800	0.111100	0.572800
N121	N12	0.462100	0.373700	0.134400
N131	N13	0.145600	0.224100	0.011800
N141	N14	0.280300	0.380200	0.958200
N151	N15	0.511700	0.237200	0.008200
N161	N16	0.068800	0.365100	0.134800
N171	N17	0.820700	0.070900	0.081700
N181	N18	0.914200	0.056200	0.773200
N191	N19	0.032600	0.084300	0.357000
N201	N20	0.651700	0.096900	0.361400
N211	N21	0.260500	0.339200	0.469000
N221	N22	0.739200	0.888900	0.427200
Cl11	Cl1	0.693900	0.779670	0.769760
Cl21	Cl2	0.263200	0.493900	0.674800
Cl31	Cl3	0.306100	0.220330	0.230240
Cl41	Cl4	0.736800	0.506100	0.325200
H11	H1	0.534000	0.878400	0.215100
H21	H2	0.584500	0.894300	0.064900
H31	H3	0.382100	0.090300	0.081700
H41	H4	0.338600	0.069200	0.231900
H51	H5	0.461700	0.983700	0.367700
H61	H6	0.413300	0.909200	0.350400
H71	H7	0.292400	0.974700	0.351500
H81	H8	0.466000	0.121600	0.784900
H91	H9	0.415500	0.105700	0.935100
H101	H10	0.617900	0.909700	0.918300
H111	H11	0.661400	0.930800	0.768100
H121	H12	0.538300	0.016300	0.632300
H131	H13	0.586700	0.090800	0.649600
H141	H14	0.707600	0.025300	0.648500
C231	C23	0.503300	0.921600	0.187000
C241	C24	0.532500	0.930900	0.096700
C251	C25	0.486800	0.994400	0.048400
C261	C26	0.413600	0.046100	0.106800
C271	C27	0.388100	0.033700	0.197100
C281	C28	0.396800	0.958800	0.335200
C291	C29	0.496700	0.078400	0.813000
C301	C30	0.467500	0.069100	0.903300
C311	C31	0.513200	0.005600	0.951600
C321	C32	0.586400	0.953900	0.893200
C331	C33	0.611900	0.966300	0.802900
C341	C34	0.603200	0.041200	0.664800
N231	N23	0.432000	0.972100	0.237400
N241	N24	0.568000	0.027900	0.762600
H151	H15	0.433400	0.516700	0.344600
H161	H16	0.452400	0.593000	0.456600
H171	H17	0.999400	0.613400	0.490800
H181	H18	0.992500	0.537400	0.379600
H191	H19	0.461200	0.715700	0.692400
H201	H20	0.459200	0.652200	0.568600
H211	H21	0.005600	0.677800	0.592600
H221	H22	0.014400	0.741000	0.716900
H231	H23	0.231000	0.489900	0.226700
H241	H24	0.107300	0.452100	0.288800
H251	H25	0.280300	0.428300	0.295600
H261	H26	0.217500	0.738000	0.853400
H271	H27	0.173800	0.810400	0.802300
H281	H28	0.345300	0.782200	0.805900
C351	C35	0.345300	0.536100	0.376000
C361	C36	0.357500	0.581800	0.442900
C371	C37	0.225800	0.610700	0.489500
C381	C38	0.090200	0.593500	0.462800
C391	C39	0.085800	0.548200	0.396400
C401	C40	0.368500	0.707100	0.672400
C411	C41	0.367500	0.669500	0.598300
C421	C42	0.231100	0.656300	0.565800
C431	C43	0.099400	0.684600	0.612500
C441	C44	0.104600	0.722200	0.687000
C451	C45	0.207500	0.467900	0.285500
C461	C46	0.244300	0.769000	0.802300
N251	N25	0.213300	0.519400	0.355500
N261	N26	0.238400	0.732500	0.717900
H291	H29	0.566600	0.483300	0.655400
H301	H30	0.547600	0.407000	0.543400
H311	H31	0.000600	0.386600	0.509200
H321	H32	0.007500	0.462600	0.620400
H331	H33	0.538800	0.284300	0.307600
H341	H34	0.540800	0.347800	0.431400
H351	H35	0.994400	0.322200	0.407400
H361	H36	0.985600	0.259000	0.283100
H371	H37	0.769000	0.510100	0.773300
H381	H38	0.892700	0.547900	0.711200
H391	H39	0.719700	0.571700	0.704400
H401	H40	0.782500	0.262000	0.146600
H411	H41	0.826200	0.189600	0.197700
H421	H42	0.654700	0.217800	0.194100
C471	C47	0.654700	0.463900	0.624000
C481	C48	0.642500	0.418200	0.557100
C491	C49	0.774200	0.389300	0.510500
C501	C50	0.909800	0.406500	0.537200
C511	C51	0.914200	0.451800	0.603600
C521	C52	0.631500	0.292900	0.327600
C531	C53	0.632500	0.330500	0.401700
C541	C54	0.768900	0.343700	0.434200
C551	C55	0.900600	0.315400	0.387500
C561	C56	0.895400	0.277800	0.313000
C571	C57	0.792500	0.532100	0.714500
C581	C58	0.755700	0.231000	0.197700
N271	N27	0.786700	0.480600	0.644500
N281	N28	0.761600	0.267500	0.282100
