data_YAYLIV_clean_PM
_symmetry_space_group_name_H-M	'P1'
_cell_length_a	12.074000
_cell_length_b	12.709000
_cell_length_c	13.947000
_cell_angle_alpha	90.000000
_cell_angle_beta	90.000000
_cell_angle_gamma	115.481000
_symmetry_Int_Tables_number 1

loop_
_symmetry_equiv_pos_as_xyz
'x,y,z'

loop_
_atom_site_label
_atom_site_type_symbol
_atom_site_fract_x
_atom_site_fract_y
_atom_site_fract_z
Ba11	Ba1	0.778100	0.155890	0.395310
Ba21	Ba2	0.606770	0.803950	0.297710
Ba31	Ba3	0.221900	0.344110	0.895310
Ba41	Ba4	0.393230	0.696050	0.797710
Ba51	Ba5	0.221900	0.844110	0.604690
Ba61	Ba6	0.393230	0.196050	0.702290
Ba71	Ba7	0.778100	0.655890	0.104690
Ba81	Ba8	0.606770	0.303950	0.202290
U11	U1	0.968640	0.016630	0.215190
U21	U2	0.390600	0.495190	0.179260
U31	U3	0.031360	0.483370	0.715190
U41	U4	0.609400	0.004810	0.679260
U51	U5	0.031360	0.983370	0.784810
U61	U6	0.609400	0.504810	0.820740
U71	U7	0.968640	0.516630	0.284810
U81	U8	0.390600	0.995190	0.320740
P11	P1	0.270240	0.209160	0.289440
P21	P2	0.100610	0.319320	0.293790
P31	P3	0.729760	0.290840	0.789440
P41	P4	0.899390	0.180680	0.793790
P51	P5	0.729760	0.790840	0.710560
P61	P6	0.899390	0.680680	0.706210
P71	P7	0.270240	0.709160	0.210560
P81	P8	0.100610	0.819320	0.206210
H11	H1	0.254000	0.337900	0.401900
H21	H2	0.142600	0.214600	0.413300
H31	H3	0.746000	0.162100	0.901900
H41	H4	0.857400	0.285400	0.913300
H51	H5	0.746000	0.662100	0.598100
H61	H6	0.857400	0.785400	0.586700
H71	H7	0.254000	0.837900	0.098100
H81	H8	0.142600	0.714600	0.086700
C11	C1	0.193700	0.272100	0.367100
C21	C2	0.806300	0.227900	0.867100
C31	C3	0.806300	0.727900	0.632900
C41	C4	0.193700	0.772100	0.132900
O11	O1	0.376600	0.310500	0.241700
O21	O2	0.178100	0.136400	0.213800
O31	O3	0.184000	0.387300	0.211400
O41	O4	0.313300	0.135100	0.351700
O51	O5	0.051300	0.393500	0.349200
O61	O6	0.992700	0.207100	0.260500
O71	O7	0.424000	0.549100	0.298800
O81	O8	0.355800	0.446800	0.058800
O91	O9	0.776000	0.930600	0.456400
O101	O10	0.623400	0.189500	0.741700
O111	O11	0.821900	0.363600	0.713800
O121	O12	0.816000	0.112700	0.711400
O131	O13	0.686700	0.364900	0.851700
O141	O14	0.948700	0.106500	0.849200
O151	O15	0.007300	0.292900	0.760500
O161	O16	0.576000	0.950900	0.798800
O171	O17	0.644200	0.053200	0.558800
O181	O18	0.224000	0.569400	0.956400
O191	O19	0.623400	0.689500	0.758300
O201	O20	0.821900	0.863600	0.786200
O211	O21	0.816000	0.612700	0.788600
O221	O22	0.686700	0.864900	0.648300
O231	O23	0.948700	0.606500	0.650800
O241	O24	0.007300	0.792900	0.739500
O251	O25	0.576000	0.450900	0.701200
O261	O26	0.644200	0.553200	0.941200
O271	O27	0.224000	0.069400	0.543600
O281	O28	0.376600	0.810500	0.258300
O291	O29	0.178100	0.636400	0.286200
O301	O30	0.184000	0.887300	0.288600
O311	O31	0.313300	0.635100	0.148300
O321	O32	0.051300	0.893500	0.150800
O331	O33	0.992700	0.707100	0.239500
O341	O34	0.424000	0.049100	0.201200
O351	O35	0.355800	0.946800	0.441200
O361	O36	0.776000	0.430600	0.043600
F11	F1	0.568000	0.479700	0.158300
F21	F2	0.552300	0.671400	0.139700
F31	F3	0.787100	0.015900	0.259800
F41	F4	0.808000	0.836300	0.199200
F51	F5	0.432000	0.020300	0.658300
F61	F6	0.447700	0.828600	0.639700
F71	F7	0.212900	0.484100	0.759800
F81	F8	0.192000	0.663700	0.699200
F91	F9	0.432000	0.520300	0.841700
F101	F10	0.447700	0.328600	0.860300
F111	F11	0.212900	0.984100	0.740200
F121	F12	0.192000	0.163700	0.800800
F131	F13	0.568000	0.979700	0.341700
F141	F14	0.552300	0.171400	0.360300
F151	F15	0.787100	0.515900	0.240200
F161	F16	0.808000	0.336300	0.300800
