data_YAYLER_clean_PM
_symmetry_space_group_name_H-M	'P1'
_cell_length_a	11.923400
_cell_length_b	11.923400
_cell_length_c	12.674800
_cell_angle_alpha	69.663700
_cell_angle_beta	69.663700
_cell_angle_gamma	88.942200
_symmetry_Int_Tables_number 1

loop_
_symmetry_equiv_pos_as_xyz
'x,y,z'

loop_
_atom_site_label
_atom_site_type_symbol
_atom_site_fract_x
_atom_site_fract_y
_atom_site_fract_z
Ba11	Ba1	0.913630	0.521750	0.171760
Ba21	Ba2	0.478250	0.086370	0.328240
Ba31	Ba3	0.086370	0.478250	0.828240
Ba41	Ba4	0.521750	0.913630	0.671760
Ba51	Ba5	0.862690	0.137310	0.250000
Ba61	Ba6	0.137310	0.862690	0.750000
U11	U1	0.713430	0.393970	0.027560
U21	U2	0.861680	0.868870	0.601000
U31	U3	0.606030	0.286570	0.472440
U41	U4	0.131130	0.138320	0.899000
U51	U5	0.286570	0.606030	0.972440
U61	U6	0.138320	0.131130	0.399000
U71	U7	0.393970	0.713430	0.527560
U81	U8	0.868870	0.861680	0.101000
P11	P1	0.382990	0.334950	0.134880
P21	P2	0.158970	0.297810	0.093090
P31	P3	0.665050	0.617010	0.365120
P41	P4	0.702190	0.841030	0.406910
P51	P5	0.617010	0.665050	0.865120
P61	P6	0.841030	0.702190	0.906910
P71	P7	0.334950	0.382990	0.634880
P81	P8	0.297810	0.158970	0.593090
H11	H1	0.325000	0.194200	0.069900
H21	H2	0.356700	0.321700	0.966600
H31	H3	0.805800	0.675000	0.430100
H41	H4	0.678300	0.643300	0.533400
H51	H5	0.675000	0.805800	0.930100
H61	H6	0.643300	0.678300	0.033400
H71	H7	0.194200	0.325000	0.569900
H81	H8	0.321700	0.356700	0.466600
C11	C1	0.315540	0.278920	0.052590
C21	C2	0.721080	0.684460	0.447410
C31	C3	0.684460	0.721080	0.947410
C41	C4	0.278920	0.315540	0.552590
O11	O1	0.140550	0.427630	0.081180
O21	O2	0.371660	0.469060	0.099340
O31	O3	0.779790	0.976330	0.655320
O41	O4	0.092810	0.211850	0.223990
O51	O5	0.309510	0.264310	0.269530
O61	O6	0.512190	0.305090	0.107080
O71	O7	0.111970	0.263730	0.009000
O81	O8	0.572370	0.859450	0.418820
O91	O9	0.530940	0.628340	0.400660
O101	O10	0.023670	0.220210	0.844680
O111	O11	0.788150	0.907190	0.276010
O121	O12	0.735690	0.690490	0.230470
O131	O13	0.694910	0.487810	0.392920
O141	O14	0.736270	0.888030	0.491000
O151	O15	0.859450	0.572370	0.918820
O161	O16	0.628340	0.530940	0.900660
O171	O17	0.220210	0.023670	0.344680
O181	O18	0.907190	0.788150	0.776010
O191	O19	0.690490	0.735690	0.730470
O201	O20	0.487810	0.694910	0.892920
O211	O21	0.888030	0.736270	0.991000
O221	O22	0.427630	0.140550	0.581180
O231	O23	0.469060	0.371660	0.599340
O241	O24	0.976330	0.779790	0.155320
O251	O25	0.211850	0.092810	0.723990
O261	O26	0.264310	0.309510	0.769530
O271	O27	0.305090	0.512190	0.607080
O281	O28	0.263730	0.111970	0.509000
F11	F1	0.891850	0.364650	0.066310
F21	F2	0.796470	0.309330	0.327710
F31	F3	0.958010	0.028850	0.416730
F41	F4	0.635350	0.108150	0.433690
F51	F5	0.690670	0.203530	0.172290
F61	F6	0.971150	0.041990	0.083270
F71	F7	0.108150	0.635350	0.933690
F81	F8	0.203530	0.690670	0.672290
F91	F9	0.041990	0.971150	0.583270
F101	F10	0.364650	0.891850	0.566310
F111	F11	0.309330	0.796470	0.827710
F121	F12	0.028850	0.958010	0.916730
