data_YAYPAR_charged_PM
_symmetry_space_group_name_H-M	'P1'
_cell_length_a	10.161100
_cell_length_b	10.249000
_cell_length_c	20.578200
_cell_angle_alpha	90.000000
_cell_angle_beta	90.000000
_cell_angle_gamma	95.863000
_symmetry_Int_Tables_number 1

loop_
_symmetry_equiv_pos_as_xyz
'x,y,z'

loop_
_atom_site_label
_atom_site_type_symbol
_atom_site_fract_x
_atom_site_fract_y
_atom_site_fract_z
Th11	Th1	0.999180	0.128140	0.406900
Th21	Th2	0.993190	0.171450	0.187520
Th31	Th3	0.000820	0.371860	0.906900
Th41	Th4	0.006810	0.328550	0.687520
Th51	Th5	0.000820	0.871860	0.593100
Th61	Th6	0.006810	0.828550	0.812480
Th71	Th7	0.999180	0.628140	0.093100
Th81	Th8	0.993190	0.671450	0.312480
P11	P1	0.801190	0.330900	0.308570
P21	P2	0.196070	0.872000	0.435310
P31	P3	0.182250	0.390380	0.306300
P41	P4	0.816150	0.801500	0.437030
P51	P5	0.198810	0.169100	0.808570
P61	P6	0.803930	0.628000	0.935310
P71	P7	0.817750	0.109620	0.806300
P81	P8	0.183850	0.698500	0.937030
P91	P9	0.198810	0.669100	0.691430
P101	P10	0.803930	0.128000	0.564690
P111	P11	0.817750	0.609620	0.693700
P121	P12	0.183850	0.198500	0.562970
P131	P13	0.801190	0.830900	0.191430
P141	P14	0.196070	0.372000	0.064690
P151	P15	0.182250	0.890380	0.193700
P161	P16	0.816150	0.301500	0.062970
H11	H1	0.399000	0.865700	0.338900
H21	H2	0.622900	0.836500	0.340100
H31	H3	0.615400	0.809200	0.536000
H41	H4	0.389500	0.839100	0.536400
H51	H5	0.565600	0.156400	0.325900
H61	H6	0.339900	0.178000	0.325500
H71	H7	0.417800	0.569100	0.294300
H81	H8	0.644100	0.547000	0.293200
H91	H9	0.601000	0.634300	0.838900
H101	H10	0.377100	0.663500	0.840100
H111	H11	0.384600	0.690800	0.036000
H121	H12	0.610500	0.660900	0.036400
H131	H13	0.434400	0.343600	0.825900
H141	H14	0.660100	0.322000	0.825500
H151	H15	0.582200	0.930900	0.794300
H161	H16	0.355900	0.953000	0.793200
H171	H17	0.601000	0.134300	0.661100
H181	H18	0.377100	0.163500	0.659900
H191	H19	0.384600	0.190800	0.464000
H201	H20	0.610500	0.160900	0.463600
H211	H21	0.434400	0.843600	0.674100
H221	H22	0.660100	0.822000	0.674500
H231	H23	0.582200	0.430900	0.705700
H241	H24	0.355900	0.453000	0.706800
H251	H25	0.399000	0.365700	0.161100
H261	H26	0.622900	0.336500	0.159900
H271	H27	0.615400	0.309200	0.964000
H281	H28	0.389500	0.339100	0.963600
H291	H29	0.565600	0.656400	0.174100
H301	H30	0.339900	0.678000	0.174500
H311	H31	0.417800	0.069100	0.205700
H321	H32	0.644100	0.047000	0.206800
C11	C1	0.371400	0.854300	0.437400
C21	C2	0.442500	0.854300	0.379000
C31	C3	0.575700	0.837600	0.379900
C41	C4	0.641200	0.822600	0.437900
C51	C5	0.571100	0.821500	0.496200
C61	C6	0.436500	0.838400	0.496500
C71	C7	0.627300	0.350700	0.309800
C81	C8	0.535400	0.240000	0.319200
C91	C9	0.401500	0.252800	0.318600
C101	C10	0.355900	0.376500	0.307800
C111	C11	0.447500	0.484800	0.299800
C121	C12	0.582500	0.472100	0.299900
C131	C13	0.628600	0.645700	0.937400
C141	C14	0.557500	0.645700	0.879000
C151	C15	0.424300	0.662400	0.879900
C161	C16	0.358800	0.677400	0.937900
C171	C17	0.428900	0.678500	0.996200
C181	C18	0.563500	0.661600	0.996500
C191	C19	0.372700	0.149300	0.809800
C201	C20	0.464600	0.260000	0.819200
C211	C21	0.598500	0.247200	0.818600
C221	C22	0.644100	0.123500	0.807800
C231	C23	0.552500	0.015200	0.799800
C241	C24	0.417500	0.027900	0.799900
C251	C25	0.628600	0.145700	0.562600
C261	C26	0.557500	0.145700	0.621000
C271	C27	0.424300	0.162400	0.620100
C281	C28	0.358800	0.177400	0.562100
C291	C29	0.428900	0.178500	0.503800
C301	C30	0.563500	0.161600	0.503500
C311	C31	0.372700	0.649300	0.690200
C321	C32	0.464600	0.760000	0.680800
C331	C33	0.598500	0.747200	0.681400
C341	C34	0.644100	0.623500	0.692200
C351	C35	0.552500	0.515200	0.700200
C361	C36	0.417500	0.527900	0.700100
C371	C37	0.371400	0.354300	0.062600
C381	C38	0.442500	0.354300	0.121000
C391	C39	0.575700	0.337600	0.120100
C401	C40	0.641200	0.322600	0.062100
C411	C41	0.571100	0.321500	0.003800
C421	C42	0.436500	0.338400	0.003500
C431	C43	0.627300	0.850700	0.190200
C441	C44	0.535400	0.740000	0.180800
C451	C45	0.401500	0.752800	0.181400
C461	C46	0.355900	0.876500	0.192200
C471	C47	0.447500	0.984800	0.200200
C481	C48	0.582500	0.972100	0.200100
O11	O1	0.829400	0.266500	0.243600
O21	O2	0.828400	0.244100	0.367400
O31	O3	0.874200	0.468100	0.315400
O41	O4	0.176500	0.996600	0.399000
O51	O5	0.145300	0.878300	0.504800
O61	O6	0.130800	0.750800	0.399900
O71	O7	0.127600	0.329900	0.243300
O81	O8	0.123100	0.313100	0.365700
O91	O9	0.164400	0.535600	0.312300
O101	O10	0.863100	0.791000	0.506500
O111	O11	0.890300	0.916700	0.400600
O121	O12	0.831300	0.676700	0.398400
O131	O13	0.170600	0.233500	0.743600
O141	O14	0.171600	0.255900	0.867400
O151	O15	0.125800	0.031900	0.815400
O161	O16	0.823500	0.503400	0.899000
O171	O17	0.854700	0.621700	0.004800
O181	O18	0.869200	0.749200	0.899900
O191	O19	0.872400	0.170100	0.743300
O201	O20	0.876900	0.186900	0.865700
O211	O21	0.835600	0.964400	0.812300
O221	O22	0.136900	0.709000	0.006500
O231	O23	0.109700	0.583300	0.900600
O241	O24	0.168700	0.823300	0.898400
O251	O25	0.170600	0.733500	0.756400
O261	O26	0.171600	0.755900	0.632600
O271	O27	0.125800	0.531900	0.684600
O281	O28	0.823500	0.003400	0.601000
O291	O29	0.854700	0.121700	0.495200
O301	O30	0.869200	0.249200	0.600100
O311	O31	0.872400	0.670100	0.756700
O321	O32	0.876900	0.686900	0.634300
O331	O33	0.835600	0.464400	0.687700
O341	O34	0.136900	0.209000	0.493500
O351	O35	0.109700	0.083300	0.599400
O361	O36	0.168700	0.323300	0.601600
O371	O37	0.829400	0.766500	0.256400
O381	O38	0.828400	0.744100	0.132600
O391	O39	0.874200	0.968100	0.184600
O401	O40	0.176500	0.496600	0.101000
O411	O41	0.145300	0.378300	0.995200
O421	O42	0.130800	0.250800	0.100100
O431	O43	0.127600	0.829900	0.256700
O441	O44	0.123100	0.813100	0.134300
O451	O45	0.164400	0.035600	0.187700
O461	O46	0.863100	0.291000	0.993500
O471	O47	0.890300	0.416700	0.099400
O481	O48	0.831300	0.176700	0.101600
F11	F1	0.001900	0.091800	0.295600
F21	F2	0.998100	0.408200	0.795600
F31	F3	0.998100	0.908200	0.704400
F41	F4	0.001900	0.591800	0.204400
