data_YAYRAT_clean_PM
_symmetry_space_group_name_H-M	'P1'
_cell_length_a	27.943000
_cell_length_b	27.943000
_cell_length_c	17.707000
_cell_angle_alpha	90.000000
_cell_angle_beta	90.000000
_cell_angle_gamma	120.000000
_symmetry_Int_Tables_number 1

loop_
_symmetry_equiv_pos_as_xyz
'x,y,z'

loop_
_atom_site_label
_atom_site_type_symbol
_atom_site_fract_x
_atom_site_fract_y
_atom_site_fract_z
Ga11	Ga1	0.881430	0.387690	0.855680
O11	O1	0.922930	0.449150	0.796100
O21	O2	0.860260	0.409100	0.705800
O31	O3	0.903880	0.492990	0.453370
O41	O4	0.983810	0.569850	0.430210
O51	O5	0.106770	0.667100	0.646470
O61	O6	0.091820	0.623710	0.756700
O71	O7	0.805120	0.354550	0.859290
O81	O8	0.814330	0.436850	0.865700
C11	C1	0.941280	0.493810	0.679000
C21	C2	0.928490	0.493350	0.602400
H11	H1	0.896300	0.463900	0.582800
C31	C3	0.963730	0.536700	0.555500
C41	C4	0.011060	0.580870	0.585500
H21	H2	0.034100	0.610300	0.554400
C51	C5	0.024490	0.581940	0.660100
C61	C6	0.990090	0.538750	0.707300
H31	H3	0.999300	0.539500	0.757900
C71	C7	0.904500	0.447000	0.728900
C81	C8	0.951200	0.534650	0.473100
C91	C9	0.077000	0.626300	0.692800
C101	C10	0.723690	0.358000	0.860800
C111	C11	0.697900	0.389500	0.860000
H41	H4	0.719500	0.427900	0.858800
C121	C12	0.785700	0.386700	0.862500
Ga21	Ga2	0.548100	0.721030	0.189010
O91	O9	0.589600	0.782480	0.129430
O101	O10	0.526930	0.742430	0.039130
O111	O11	0.570550	0.826320	0.786700
O121	O12	0.650480	0.903180	0.763540
O131	O13	0.773440	0.000430	0.979800
O141	O14	0.758490	0.957040	0.090030
O151	O15	0.471790	0.687880	0.192620
O161	O16	0.481000	0.770180	0.199030
C131	C13	0.607950	0.827140	0.012330
C141	C14	0.595160	0.826680	0.935730
H51	H5	0.562970	0.797230	0.916130
C151	C15	0.630400	0.870030	0.888830
C161	C16	0.677730	0.914200	0.918830
H61	H6	0.700770	0.943630	0.887730
C171	C17	0.691160	0.915270	0.993430
C181	C18	0.656760	0.872080	0.040630
H71	H7	0.665970	0.872830	0.091230
C191	C19	0.571170	0.780330	0.062230
C201	C20	0.617870	0.867980	0.806430
C211	C21	0.743670	0.959630	0.026130
C221	C22	0.390360	0.691330	0.194130
C231	C23	0.364570	0.722830	0.193330
H81	H8	0.386170	0.761230	0.192130
C241	C24	0.452370	0.720030	0.195830
Ga31	Ga3	0.214770	0.054360	0.522350
O171	O17	0.256260	0.115820	0.462770
O181	O18	0.193590	0.075770	0.372470
O191	O19	0.237210	0.159660	0.120040
O201	O20	0.317140	0.236520	0.096880
O211	O21	0.440100	0.333770	0.313140
O221	O22	0.425150	0.290380	0.423370
O231	O23	0.138450	0.021220	0.525960
O241	O24	0.147660	0.103520	0.532370
C251	C25	0.274610	0.160480	0.345670
C261	C26	0.261820	0.160020	0.269070
H91	H9	0.229630	0.130570	0.249470
C271	C27	0.297060	0.203370	0.222170
C281	C28	0.344390	0.247540	0.252170
H101	H10	0.367430	0.276970	0.221070
C291	C29	0.357820	0.248610	0.326770
C301	C30	0.323420	0.205420	0.373970
H111	H11	0.332630	0.206170	0.424570
C311	C31	0.237830	0.113670	0.395570
C321	C32	0.284530	0.201320	0.139770
C331	C33	0.410330	0.292970	0.359470
C341	C34	0.057020	0.024670	0.527470
C351	C35	0.031230	0.056170	0.526670
H121	H12	0.052830	0.094570	0.525470
C361	C36	0.119030	0.053370	0.529170
Ga41	Ga4	0.612310	0.493740	0.855680
O251	O25	0.550850	0.473780	0.796100
O261	O26	0.590900	0.451160	0.705800
O271	O27	0.507010	0.410890	0.453370
O281	O28	0.430150	0.413960	0.430210
O291	O29	0.332900	0.439670	0.646470
O301	O30	0.376290	0.468110	0.756700
O311	O31	0.645450	0.450570	0.859290
O321	O32	0.563150	0.377480	0.865700
C371	C37	0.506190	0.447470	0.679000
C381	C38	0.506650	0.435140	0.602400
H131	H13	0.536100	0.432400	0.582800
C391	C39	0.463300	0.427030	0.555500
C401	C40	0.419130	0.430190	0.585500
H141	H14	0.389700	0.423800	0.554400
C411	C41	0.418060	0.442550	0.660100
C421	C42	0.461250	0.451340	0.707300
H151	H15	0.460500	0.459800	0.757900
C431	C43	0.553000	0.457500	0.728900
C441	C44	0.465350	0.416550	0.473100
C451	C45	0.373700	0.450700	0.692800
C461	C46	0.642000	0.365690	0.860800
C471	C47	0.610500	0.308400	0.860000
H161	H16	0.572100	0.291600	0.858800
C481	C48	0.613300	0.399000	0.862500
Ga51	Ga5	0.278970	0.827070	0.189010
O331	O33	0.217520	0.807110	0.129430
O341	O34	0.257570	0.784490	0.039130
O351	O35	0.173680	0.744220	0.786700
O361	O36	0.096820	0.747290	0.763540
O371	O37	0.999570	0.773000	0.979800
O381	O38	0.042960	0.801440	0.090030
O391	O39	0.312120	0.783900	0.192620
O401	O40	0.229820	0.710810	0.199030
C491	C49	0.172860	0.780800	0.012330
C501	C50	0.173320	0.768470	0.935730
H171	H17	0.202770	0.765730	0.916130
C511	C51	0.129970	0.760360	0.888830
C521	C52	0.085800	0.763520	0.918830
H181	H18	0.056370	0.757130	0.887730
C531	C53	0.084730	0.775880	0.993430
C541	C54	0.127920	0.784670	0.040630
H191	H19	0.127170	0.793130	0.091230
C551	C55	0.219670	0.790830	0.062230
C561	C56	0.132020	0.749880	0.806430
C571	C57	0.040370	0.784030	0.026130
C581	C58	0.308670	0.699020	0.194130
C591	C59	0.277170	0.641730	0.193330
H201	H20	0.238770	0.624930	0.192130
C601	C60	0.279970	0.732330	0.195830
Ga61	Ga6	0.945640	0.160410	0.522350
O411	O41	0.884180	0.140450	0.462770
O421	O42	0.924230	0.117830	0.372470
O431	O43	0.840340	0.077560	0.120040
O441	O44	0.763480	0.080630	0.096880
O451	O45	0.666230	0.106340	0.313140
O461	O46	0.709620	0.134780	0.423370
O471	O47	0.978780	0.117240	0.525960
O481	O48	0.896480	0.044150	0.532370
C611	C61	0.839520	0.114140	0.345670
C621	C62	0.839980	0.101810	0.269070
H211	H21	0.869430	0.099070	0.249470
C631	C63	0.796630	0.093700	0.222170
C641	C64	0.752460	0.096860	0.252170
H221	H22	0.723030	0.090470	0.221070
C651	C65	0.751390	0.109220	0.326770
C661	C66	0.794580	0.118010	0.373970
H231	H23	0.793830	0.126470	0.424570
C671	C67	0.886330	0.124170	0.395570
C681	C68	0.798680	0.083220	0.139770
C691	C69	0.707030	0.117370	0.359470
C701	C70	0.975330	0.032360	0.527470
C711	C71	0.943830	0.975070	0.526670
H241	H24	0.905430	0.958270	0.525470
C721	C72	0.946630	0.065670	0.529170
Ga71	Ga7	0.506260	0.118570	0.855680
O491	O49	0.526220	0.077070	0.796100
O501	O50	0.548840	0.139740	0.705800
O511	O51	0.589110	0.096120	0.453370
O521	O52	0.586040	0.016190	0.430210
O531	O53	0.560330	0.893230	0.646470
O541	O54	0.531890	0.908180	0.756700
O551	O55	0.549430	0.194880	0.859290
O561	O56	0.622520	0.185670	0.865700
C731	C73	0.552530	0.058720	0.679000
C741	C74	0.564860	0.071510	0.602400
H251	H25	0.567600	0.103700	0.582800
C751	C75	0.572970	0.036270	0.555500
C761	C76	0.569810	0.988940	0.585500
H261	H26	0.576200	0.965900	0.554400
C771	C77	0.557450	0.975510	0.660100
C781	C78	0.548660	0.009910	0.707300
H271	H27	0.540200	0.000700	0.757900
C791	C79	0.542500	0.095500	0.728900
C801	C80	0.583450	0.048800	0.473100
C811	C81	0.549300	0.923000	0.692800
C821	C82	0.634310	0.276310	0.860800
C831	C83	0.691600	0.302100	0.860000
H281	H28	0.708400	0.280500	0.858800
C841	C84	0.601000	0.214300	0.862500
Ga81	Ga8	0.172930	0.451900	0.189010
O571	O57	0.192890	0.410400	0.129430
O581	O58	0.215510	0.473070	0.039130
O591	O59	0.255780	0.429450	0.786700
O601	O60	0.252710	0.349520	0.763540
O611	O61	0.227000	0.226560	0.979800
O621	O62	0.198560	0.241510	0.090030
O631	O63	0.216100	0.528210	0.192620
O641	O64	0.289190	0.519000	0.199030
C851	C85	0.219200	0.392050	0.012330
C861	C86	0.231530	0.404840	0.935730
H291	H29	0.234270	0.437030	0.916130
C871	C87	0.239640	0.369600	0.888830
C881	C88	0.236480	0.322270	0.918830
H301	H30	0.242870	0.299230	0.887730
C891	C89	0.224120	0.308840	0.993430
C901	C90	0.215330	0.343240	0.040630
H311	H31	0.206870	0.334030	0.091230
C911	C91	0.209170	0.428830	0.062230
C921	C92	0.250120	0.382130	0.806430
C931	C93	0.215970	0.256330	0.026130
C941	C94	0.300980	0.609640	0.194130
C951	C95	0.358270	0.635430	0.193330
H321	H32	0.375070	0.613830	0.192130
C961	C96	0.267670	0.547630	0.195830
Ga91	Ga9	0.839590	0.785230	0.522350
O651	O65	0.859550	0.743740	0.462770
O661	O66	0.882170	0.806410	0.372470
O671	O67	0.922440	0.762790	0.120040
O681	O68	0.919370	0.682860	0.096880
O691	O69	0.893660	0.559900	0.313140
O701	O70	0.865220	0.574850	0.423370
O711	O71	0.882760	0.861550	0.525960
O721	O72	0.955850	0.852340	0.532370
C971	C97	0.885860	0.725390	0.345670
C981	C98	0.898190	0.738180	0.269070
H331	H33	0.900930	0.770370	0.249470
C991	C99	0.906300	0.702940	0.222170
C1001	C100	0.903140	0.655610	0.252170
H341	H34	0.909530	0.632570	0.221070
C1011	C101	0.890780	0.642180	0.326770
C1021	C102	0.881990	0.676580	0.373970
H351	H35	0.873530	0.667370	0.424570
C1031	C103	0.875830	0.762170	0.395570
C1041	C104	0.916780	0.715470	0.139770
C1051	C105	0.882630	0.589670	0.359470
C1061	C106	0.967640	0.942980	0.527470
C1071	C107	0.024930	0.968770	0.526670
H361	H36	0.041730	0.947170	0.525470
C1081	C108	0.934330	0.880970	0.529170
Ga101	Ga10	0.612310	0.118570	0.355680
O731	O73	0.550850	0.077070	0.296100
O741	O74	0.590900	0.139740	0.205800
O751	O75	0.507010	0.096120	0.953370
O761	O76	0.430150	0.016190	0.930210
O771	O77	0.332900	0.893230	0.146470
O781	O78	0.376290	0.908180	0.256700
O791	O79	0.645450	0.194880	0.359290
O801	O80	0.563150	0.185670	0.365700
C1091	C109	0.506190	0.058720	0.179000
C1101	C110	0.506650	0.071510	0.102400
H371	H37	0.536100	0.103700	0.082800
C1111	C111	0.463300	0.036270	0.055500
C1121	C112	0.419130	0.988940	0.085500
H381	H38	0.389700	0.965900	0.054400
C1131	C113	0.418060	0.975510	0.160100
C1141	C114	0.461250	0.009910	0.207300
H391	H39	0.460500	0.000700	0.257900
C1151	C115	0.553000	0.095500	0.228900
C1161	C116	0.465350	0.048800	0.973100
C1171	C117	0.373700	0.923000	0.192800
C1181	C118	0.642000	0.276310	0.360800
C1191	C119	0.610500	0.302100	0.360000
H401	H40	0.572100	0.280500	0.358800
C1201	C120	0.613300	0.214300	0.362500
Ga111	Ga11	0.278970	0.451900	0.689010
O811	O81	0.217520	0.410400	0.629430
O821	O82	0.257570	0.473070	0.539130
O831	O83	0.173680	0.429450	0.286700
O841	O84	0.096820	0.349520	0.263540
O851	O85	0.999570	0.226560	0.479800
O861	O86	0.042960	0.241510	0.590030
O871	O87	0.312120	0.528210	0.692620
O881	O88	0.229820	0.519000	0.699030
C1211	C121	0.172860	0.392050	0.512330
C1221	C122	0.173320	0.404840	0.435730
H411	H41	0.202770	0.437030	0.416130
C1231	C123	0.129970	0.369600	0.388830
C1241	C124	0.085800	0.322270	0.418830
H421	H42	0.056370	0.299230	0.387730
C1251	C125	0.084730	0.308840	0.493430
C1261	C126	0.127920	0.343240	0.540630
H431	H43	0.127170	0.334030	0.591230
C1271	C127	0.219670	0.428830	0.562230
C1281	C128	0.132020	0.382130	0.306430
C1291	C129	0.040370	0.256330	0.526130
C1301	C130	0.308670	0.609640	0.694130
C1311	C131	0.277170	0.635430	0.693330
H441	H44	0.238770	0.613830	0.692130
C1321	C132	0.279970	0.547630	0.695830
Ga121	Ga12	0.945640	0.785230	0.022350
O891	O89	0.884180	0.743740	0.962770
O901	O90	0.924230	0.806410	0.872470
O911	O91	0.840340	0.762790	0.620040
O921	O92	0.763480	0.682860	0.596880
O931	O93	0.666230	0.559900	0.813140
O941	O94	0.709620	0.574850	0.923370
O951	O95	0.978780	0.861550	0.025960
O961	O96	0.896480	0.852340	0.032370
C1331	C133	0.839520	0.725390	0.845670
C1341	C134	0.839980	0.738180	0.769070
H451	H45	0.869430	0.770370	0.749470
C1351	C135	0.796630	0.702940	0.722170
C1361	C136	0.752460	0.655610	0.752170
H461	H46	0.723030	0.632570	0.721070
C1371	C137	0.751390	0.642180	0.826770
C1381	C138	0.794580	0.676580	0.873970
H471	H47	0.793830	0.667370	0.924570
C1391	C139	0.886330	0.762170	0.895570
C1401	C140	0.798680	0.715470	0.639770
C1411	C141	0.707030	0.589670	0.859470
C1421	C142	0.975330	0.942980	0.027470
C1431	C143	0.943830	0.968770	0.026670
H481	H48	0.905430	0.947170	0.025470
C1441	C144	0.946630	0.880970	0.029170
Ga131	Ga13	0.506260	0.387690	0.355680
O971	O97	0.526220	0.449150	0.296100
O981	O98	0.548840	0.409100	0.205800
O991	O99	0.589110	0.492990	0.953370
O1001	O100	0.586040	0.569850	0.930210
O1011	O101	0.560330	0.667100	0.146470
O1021	O102	0.531890	0.623710	0.256700
O1031	O103	0.549430	0.354550	0.359290
O1041	O104	0.622520	0.436850	0.365700
C1451	C145	0.552530	0.493810	0.179000
C1461	C146	0.564860	0.493350	0.102400
H491	H49	0.567600	0.463900	0.082800
C1471	C147	0.572970	0.536700	0.055500
C1481	C148	0.569810	0.580870	0.085500
H501	H50	0.576200	0.610300	0.054400
C1491	C149	0.557450	0.581940	0.160100
C1501	C150	0.548660	0.538750	0.207300
H511	H51	0.540200	0.539500	0.257900
C1511	C151	0.542500	0.447000	0.228900
C1521	C152	0.583450	0.534650	0.973100
C1531	C153	0.549300	0.626300	0.192800
C1541	C154	0.634310	0.358000	0.360800
C1551	C155	0.691600	0.389500	0.360000
H521	H52	0.708400	0.427900	0.358800
C1561	C156	0.601000	0.386700	0.362500
Ga141	Ga14	0.172930	0.721030	0.689010
O1051	O105	0.192890	0.782480	0.629430
O1061	O106	0.215510	0.742430	0.539130
O1071	O107	0.255780	0.826320	0.286700
O1081	O108	0.252710	0.903180	0.263540
O1091	O109	0.227000	0.000430	0.479800
O1101	O110	0.198560	0.957040	0.590030
O1111	O111	0.216100	0.687880	0.692620
O1121	O112	0.289190	0.770180	0.699030
C1571	C157	0.219200	0.827140	0.512330
C1581	C158	0.231530	0.826680	0.435730
H531	H53	0.234270	0.797230	0.416130
C1591	C159	0.239640	0.870030	0.388830
C1601	C160	0.236480	0.914200	0.418830
H541	H54	0.242870	0.943630	0.387730
C1611	C161	0.224120	0.915270	0.493430
C1621	C162	0.215330	0.872080	0.540630
H551	H55	0.206870	0.872830	0.591230
C1631	C163	0.209170	0.780330	0.562230
C1641	C164	0.250120	0.867980	0.306430
C1651	C165	0.215970	0.959630	0.526130
C1661	C166	0.300980	0.691330	0.694130
C1671	C167	0.358270	0.722830	0.693330
H561	H56	0.375070	0.761230	0.692130
C1681	C168	0.267670	0.720030	0.695830
Ga151	Ga15	0.839590	0.054360	0.022350
O1131	O113	0.859550	0.115820	0.962770
O1141	O114	0.882170	0.075770	0.872470
O1151	O115	0.922440	0.159660	0.620040
O1161	O116	0.919370	0.236520	0.596880
O1171	O117	0.893660	0.333770	0.813140
O1181	O118	0.865220	0.290380	0.923370
O1191	O119	0.882760	0.021220	0.025960
O1201	O120	0.955850	0.103520	0.032370
C1691	C169	0.885860	0.160480	0.845670
C1701	C170	0.898190	0.160020	0.769070
H571	H57	0.900930	0.130570	0.749470
C1711	C171	0.906300	0.203370	0.722170
C1721	C172	0.903140	0.247540	0.752170
H581	H58	0.909530	0.276970	0.721070
C1731	C173	0.890780	0.248610	0.826770
C1741	C174	0.881990	0.205420	0.873970
H591	H59	0.873530	0.206170	0.924570
C1751	C175	0.875830	0.113670	0.895570
C1761	C176	0.916780	0.201320	0.639770
C1771	C177	0.882630	0.292970	0.859470
C1781	C178	0.967640	0.024670	0.027470
C1791	C179	0.024930	0.056170	0.026670
H601	H60	0.041730	0.094570	0.025470
C1801	C180	0.934330	0.053370	0.029170
Ga161	Ga16	0.881430	0.493740	0.355680
O1211	O121	0.922930	0.473780	0.296100
O1221	O122	0.860260	0.451160	0.205800
O1231	O123	0.903880	0.410890	0.953370
O1241	O124	0.983810	0.413960	0.930210
O1251	O125	0.106770	0.439670	0.146470
O1261	O126	0.091820	0.468110	0.256700
O1271	O127	0.805120	0.450570	0.359290
O1281	O128	0.814330	0.377480	0.365700
C1811	C181	0.941280	0.447470	0.179000
C1821	C182	0.928490	0.435140	0.102400
H611	H61	0.896300	0.432400	0.082800
C1831	C183	0.963730	0.427030	0.055500
C1841	C184	0.011060	0.430190	0.085500
H621	H62	0.034100	0.423800	0.054400
C1851	C185	0.024490	0.442550	0.160100
C1861	C186	0.990090	0.451340	0.207300
H631	H63	0.999300	0.459800	0.257900
C1871	C187	0.904500	0.457500	0.228900
C1881	C188	0.951200	0.416550	0.973100
C1891	C189	0.077000	0.450700	0.192800
C1901	C190	0.723690	0.365690	0.360800
C1911	C191	0.697900	0.308400	0.360000
H641	H64	0.719500	0.291600	0.358800
C1921	C192	0.785700	0.399000	0.362500
Ga171	Ga17	0.548100	0.827070	0.689010
O1291	O129	0.589600	0.807110	0.629430
O1301	O130	0.526930	0.784490	0.539130
O1311	O131	0.570550	0.744220	0.286700
O1321	O132	0.650480	0.747290	0.263540
O1331	O133	0.773440	0.773000	0.479800
O1341	O134	0.758490	0.801440	0.590030
O1351	O135	0.471790	0.783900	0.692620
O1361	O136	0.481000	0.710810	0.699030
C1931	C193	0.607950	0.780800	0.512330
C1941	C194	0.595160	0.768470	0.435730
H651	H65	0.562970	0.765730	0.416130
C1951	C195	0.630400	0.760360	0.388830
C1961	C196	0.677730	0.763520	0.418830
H661	H66	0.700770	0.757130	0.387730
C1971	C197	0.691160	0.775880	0.493430
C1981	C198	0.656760	0.784670	0.540630
H671	H67	0.665970	0.793130	0.591230
C1991	C199	0.571170	0.790830	0.562230
C2001	C200	0.617870	0.749880	0.306430
C2011	C201	0.743670	0.784030	0.526130
C2021	C202	0.390360	0.699020	0.694130
C2031	C203	0.364570	0.641730	0.693330
H681	H68	0.386170	0.624930	0.692130
C2041	C204	0.452370	0.732330	0.695830
Ga181	Ga18	0.214770	0.160410	0.022350
O1371	O137	0.256260	0.140450	0.962770
O1381	O138	0.193590	0.117830	0.872470
O1391	O139	0.237210	0.077560	0.620040
O1401	O140	0.317140	0.080630	0.596880
O1411	O141	0.440100	0.106340	0.813140
O1421	O142	0.425150	0.134780	0.923370
O1431	O143	0.138450	0.117240	0.025960
O1441	O144	0.147660	0.044150	0.032370
C2051	C205	0.274610	0.114140	0.845670
C2061	C206	0.261820	0.101810	0.769070
H691	H69	0.229630	0.099070	0.749470
C2071	C207	0.297060	0.093700	0.722170
C2081	C208	0.344390	0.096860	0.752170
H701	H70	0.367430	0.090470	0.721070
C2091	C209	0.357820	0.109220	0.826770
C2101	C210	0.323420	0.118010	0.873970
H711	H71	0.332630	0.126470	0.924570
C2111	C211	0.237830	0.124170	0.895570
C2121	C212	0.284530	0.083220	0.639770
C2131	C213	0.410330	0.117370	0.859470
C2141	C214	0.057020	0.032360	0.027470
C2151	C215	0.031230	0.975070	0.026670
H721	H72	0.052830	0.958270	0.025470
C2161	C216	0.119030	0.065670	0.029170
