data_YEBKUM_clean_PM
_symmetry_space_group_name_H-M	'P1'
_cell_length_a	8.797000
_cell_length_b	16.155000
_cell_length_c	32.170000
_cell_angle_alpha	90.000000
_cell_angle_beta	90.000000
_cell_angle_gamma	90.000000
_symmetry_Int_Tables_number 1

loop_
_symmetry_equiv_pos_as_xyz
'x,y,z'

loop_
_atom_site_label
_atom_site_type_symbol
_atom_site_fract_x
_atom_site_fract_y
_atom_site_fract_z
Yb11	Yb1	0.889790	0.231600	0.064070
O11	O1	0.060800	0.166900	0.021730
O21	O2	0.221500	0.183300	0.969210
O31	O3	0.238400	0.343800	0.984230
O41	O4	0.054500	0.329800	0.032740
O51	O5	0.839600	0.352700	0.101990
O61	O6	0.941100	0.447700	0.143520
O71	O7	0.069100	0.250200	0.116830
O81	O8	0.170900	0.346300	0.159650
C11	C1	0.142100	0.210300	0.998230
C21	C2	0.145700	0.303700	0.006010
C31	C3	0.938600	0.379700	0.125940
C41	C4	0.071500	0.320000	0.134910
Yb21	Yb2	0.889790	0.731600	0.564070
O91	O9	0.060800	0.666900	0.521730
O101	O10	0.221500	0.683300	0.469210
O111	O11	0.238400	0.843800	0.484230
O121	O12	0.054500	0.829800	0.532740
O131	O13	0.839600	0.852700	0.601990
O141	O14	0.941100	0.947700	0.643520
O151	O15	0.069100	0.750200	0.616830
O161	O16	0.170900	0.846300	0.659650
C51	C5	0.142100	0.710300	0.498230
C61	C6	0.145700	0.803700	0.506010
C71	C7	0.938600	0.879700	0.625940
C81	C8	0.071500	0.820000	0.634910
Yb31	Yb3	0.389790	0.231600	0.564070
O171	O17	0.560800	0.166900	0.521730
O181	O18	0.721500	0.183300	0.469210
O191	O19	0.738400	0.343800	0.484230
O201	O20	0.554500	0.329800	0.532740
O211	O21	0.339600	0.352700	0.601990
O221	O22	0.441100	0.447700	0.643520
O231	O23	0.569100	0.250200	0.616830
O241	O24	0.670900	0.346300	0.659650
C91	C9	0.642100	0.210300	0.498230
C101	C10	0.645700	0.303700	0.506010
C111	C11	0.438600	0.379700	0.625940
C121	C12	0.571500	0.320000	0.634910
Yb41	Yb4	0.389790	0.731600	0.064070
O251	O25	0.560800	0.666900	0.021730
O261	O26	0.721500	0.683300	0.969210
O271	O27	0.738400	0.843800	0.984230
O281	O28	0.554500	0.829800	0.032740
O291	O29	0.339600	0.852700	0.101990
O301	O30	0.441100	0.947700	0.143520
O311	O31	0.569100	0.750200	0.116830
O321	O32	0.670900	0.846300	0.159650
C131	C13	0.642100	0.710300	0.998230
C141	C14	0.645700	0.803700	0.006010
C151	C15	0.438600	0.879700	0.125940
C161	C16	0.571500	0.820000	0.134910
Yb51	Yb5	0.889790	0.768400	0.935930
O331	O33	0.060800	0.833100	0.978270
O341	O34	0.221500	0.816700	0.030790
O351	O35	0.238400	0.656200	0.015770
O361	O36	0.054500	0.670200	0.967260
O371	O37	0.839600	0.647300	0.898010
O381	O38	0.941100	0.552300	0.856480
O391	O39	0.069100	0.749800	0.883170
O401	O40	0.170900	0.653700	0.840350
C171	C17	0.142100	0.789700	0.001770
C181	C18	0.145700	0.696300	0.993990
C191	C19	0.938600	0.620300	0.874060
C201	C20	0.071500	0.680000	0.865090
Yb61	Yb6	0.889790	0.268400	0.435930
O411	O41	0.060800	0.333100	0.478270
O421	O42	0.221500	0.316700	0.530790
O431	O43	0.238400	0.156200	0.515770
O441	O44	0.054500	0.170200	0.467260
O451	O45	0.839600	0.147300	0.398010
O461	O46	0.941100	0.052300	0.356480
O471	O47	0.069100	0.249800	0.383170
O481	O48	0.170900	0.153700	0.340350
C211	C21	0.142100	0.289700	0.501770
C221	C22	0.145700	0.196300	0.493990
C231	C23	0.938600	0.120300	0.374060
C241	C24	0.071500	0.180000	0.365090
Yb71	Yb7	0.389790	0.768400	0.435930
O491	O49	0.560800	0.833100	0.478270
O501	O50	0.721500	0.816700	0.530790
O511	O51	0.738400	0.656200	0.515770
O521	O52	0.554500	0.670200	0.467260
O531	O53	0.339600	0.647300	0.398010
O541	O54	0.441100	0.552300	0.356480
O551	O55	0.569100	0.749800	0.383170
O561	O56	0.670900	0.653700	0.340350
C251	C25	0.642100	0.789700	0.501770
C261	C26	0.645700	0.696300	0.493990
C271	C27	0.438600	0.620300	0.374060
C281	C28	0.571500	0.680000	0.365090
Yb81	Yb8	0.389790	0.268400	0.935930
O571	O57	0.560800	0.333100	0.978270
O581	O58	0.721500	0.316700	0.030790
O591	O59	0.738400	0.156200	0.015770
O601	O60	0.554500	0.170200	0.967260
O611	O61	0.339600	0.147300	0.898010
O621	O62	0.441100	0.052300	0.856480
O631	O63	0.569100	0.249800	0.883170
O641	O64	0.670900	0.153700	0.840350
C291	C29	0.642100	0.289700	0.001770
C301	C30	0.645700	0.196300	0.993990
C311	C31	0.438600	0.120300	0.874060
C321	C32	0.571500	0.180000	0.865090
Yb91	Yb9	0.639790	0.981600	0.185930
O651	O65	0.810800	0.916900	0.228270
O661	O66	0.971500	0.933300	0.280790
O671	O67	0.988400	0.093800	0.265770
O681	O68	0.804500	0.079800	0.217260
O691	O69	0.589600	0.102700	0.148010
O701	O70	0.691100	0.197700	0.106480
O711	O71	0.819100	0.000200	0.133170
O721	O72	0.920900	0.096300	0.090350
C331	C33	0.892100	0.960300	0.251770
C341	C34	0.895700	0.053700	0.243990
C351	C35	0.688600	0.129700	0.124060
C361	C36	0.821500	0.070000	0.115090
Yb101	Yb10	0.639790	0.481600	0.685930
O731	O73	0.810800	0.416900	0.728270
O741	O74	0.971500	0.433300	0.780790
O751	O75	0.988400	0.593800	0.765770
O761	O76	0.804500	0.579800	0.717260
O771	O77	0.589600	0.602700	0.648010
O781	O78	0.691100	0.697700	0.606480
O791	O79	0.819100	0.500200	0.633170
O801	O80	0.920900	0.596300	0.590350
C371	C37	0.892100	0.460300	0.751770
C381	C38	0.895700	0.553700	0.743990
C391	C39	0.688600	0.629700	0.624060
C401	C40	0.821500	0.570000	0.615090
Yb111	Yb11	0.139790	0.981600	0.685930
O811	O81	0.310800	0.916900	0.728270
O821	O82	0.471500	0.933300	0.780790
O831	O83	0.488400	0.093800	0.765770
O841	O84	0.304500	0.079800	0.717260
O851	O85	0.089600	0.102700	0.648010
O861	O86	0.191100	0.197700	0.606480
O871	O87	0.319100	0.000200	0.633170
O881	O88	0.420900	0.096300	0.590350
C411	C41	0.392100	0.960300	0.751770
C421	C42	0.395700	0.053700	0.743990
C431	C43	0.188600	0.129700	0.624060
C441	C44	0.321500	0.070000	0.615090
Yb121	Yb12	0.139790	0.481600	0.185930
O891	O89	0.310800	0.416900	0.228270
O901	O90	0.471500	0.433300	0.280790
O911	O91	0.488400	0.593800	0.265770
O921	O92	0.304500	0.579800	0.217260
O931	O93	0.089600	0.602700	0.148010
O941	O94	0.191100	0.697700	0.106480
O951	O95	0.319100	0.500200	0.133170
O961	O96	0.420900	0.596300	0.090350
C451	C45	0.392100	0.460300	0.251770
C461	C46	0.395700	0.553700	0.243990
C471	C47	0.188600	0.629700	0.124060
C481	C48	0.321500	0.570000	0.115090
Yb131	Yb13	0.639790	0.518400	0.314070
O971	O97	0.810800	0.583100	0.271730
O981	O98	0.971500	0.566700	0.219210
O991	O99	0.988400	0.406200	0.234230
O1001	O100	0.804500	0.420200	0.282740
O1011	O101	0.589600	0.397300	0.351990
O1021	O102	0.691100	0.302300	0.393520
O1031	O103	0.819100	0.499800	0.366830
O1041	O104	0.920900	0.403700	0.409650
C491	C49	0.892100	0.539700	0.248230
C501	C50	0.895700	0.446300	0.256010
C511	C51	0.688600	0.370300	0.375940
C521	C52	0.821500	0.430000	0.384910
Yb141	Yb14	0.639790	0.018400	0.814070
O1051	O105	0.810800	0.083100	0.771730
O1061	O106	0.971500	0.066700	0.719210
O1071	O107	0.988400	0.906200	0.734230
O1081	O108	0.804500	0.920200	0.782740
O1091	O109	0.589600	0.897300	0.851990
O1101	O110	0.691100	0.802300	0.893520
O1111	O111	0.819100	0.999800	0.866830
O1121	O112	0.920900	0.903700	0.909650
C531	C53	0.892100	0.039700	0.748230
C541	C54	0.895700	0.946300	0.756010
C551	C55	0.688600	0.870300	0.875940
C561	C56	0.821500	0.930000	0.884910
Yb151	Yb15	0.139790	0.518400	0.814070
O1131	O113	0.310800	0.583100	0.771730
O1141	O114	0.471500	0.566700	0.719210
O1151	O115	0.488400	0.406200	0.734230
O1161	O116	0.304500	0.420200	0.782740
O1171	O117	0.089600	0.397300	0.851990
O1181	O118	0.191100	0.302300	0.893520
O1191	O119	0.319100	0.499800	0.866830
O1201	O120	0.420900	0.403700	0.909650
C571	C57	0.392100	0.539700	0.748230
C581	C58	0.395700	0.446300	0.756010
C591	C59	0.188600	0.370300	0.875940
C601	C60	0.321500	0.430000	0.884910
Yb161	Yb16	0.139790	0.018400	0.314070
O1211	O121	0.310800	0.083100	0.271730
O1221	O122	0.471500	0.066700	0.219210
O1231	O123	0.488400	0.906200	0.234230
O1241	O124	0.304500	0.920200	0.282740
O1251	O125	0.089600	0.897300	0.351990
O1261	O126	0.191100	0.802300	0.393520
O1271	O127	0.319100	0.999800	0.366830
O1281	O128	0.420900	0.903700	0.409650
C611	C61	0.392100	0.039700	0.248230
C621	C62	0.395700	0.946300	0.256010
C631	C63	0.188600	0.870300	0.375940
C641	C64	0.321500	0.930000	0.384910
