data_YEBKOG_clean_PM
_symmetry_space_group_name_H-M	'P1'
_cell_length_a	7.813000
_cell_length_b	11.880000
_cell_length_c	12.994000
_cell_angle_alpha	93.092000
_cell_angle_beta	93.938000
_cell_angle_gamma	108.359000
_symmetry_Int_Tables_number 1

loop_
_symmetry_equiv_pos_as_xyz
'x,y,z'

loop_
_atom_site_label
_atom_site_type_symbol
_atom_site_fract_x
_atom_site_fract_y
_atom_site_fract_z
Nd11	Nd1	0.150040	0.777760	0.031900
Nd21	Nd2	0.156510	0.782150	0.532070
O11	O1	0.984700	0.727100	0.357800
O21	O2	0.982300	0.718800	0.186800
O31	O3	0.341200	0.825400	0.203600
O41	O4	0.344600	0.821600	0.376500
O51	O5	0.211700	0.680200	0.690600
O61	O6	0.199200	0.669700	0.861500
O71	O7	0.108500	0.873300	0.700900
O81	O8	0.081300	0.858500	0.869500
O91	O9	0.468800	0.848100	0.989700
O101	O10	0.701100	0.999400	0.949300
O111	O11	0.884800	0.852000	0.516900
O121	O12	0.778000	0.002800	0.492000
O131	O13	0.888200	0.603800	0.977500
O141	O14	0.799300	0.408700	0.930700
O151	O15	0.212700	0.595600	0.477800
O161	O16	0.109500	0.397400	0.463800
C11	C1	0.059800	0.745600	0.276200
C21	C2	0.268500	0.804400	0.286200
C31	C3	0.181800	0.714300	0.778300
C41	C4	0.118400	0.826100	0.784100
C51	C5	0.547700	0.955100	0.982700
C61	C6	0.902600	0.957200	0.502500
C71	C7	0.909000	0.503600	0.973600
C81	C8	0.093900	0.497800	0.483200
Nd31	Nd3	0.849960	0.222240	0.968100
Nd41	Nd4	0.843490	0.217850	0.467930
O171	O17	0.015300	0.272900	0.642200
O181	O18	0.017700	0.281200	0.813200
O191	O19	0.658800	0.174600	0.796400
O201	O20	0.655400	0.178400	0.623500
O211	O21	0.788300	0.319800	0.309400
O221	O22	0.800800	0.330300	0.138500
O231	O23	0.891500	0.126700	0.299100
O241	O24	0.918700	0.141500	0.130500
O251	O25	0.531200	0.151900	0.010300
O261	O26	0.298900	0.000600	0.050700
O271	O27	0.115200	0.148000	0.483100
O281	O28	0.222000	0.997200	0.508000
O291	O29	0.111800	0.396200	0.022500
O301	O30	0.200700	0.591300	0.069300
O311	O31	0.787300	0.404400	0.522200
O321	O32	0.890500	0.602600	0.536200
C91	C9	0.940200	0.254400	0.723800
C101	C10	0.731500	0.195600	0.713800
C111	C11	0.818200	0.285700	0.221700
C121	C12	0.881600	0.173900	0.215900
C131	C13	0.452300	0.044900	0.017300
C141	C14	0.097400	0.042800	0.497500
C151	C15	0.091000	0.496400	0.026400
C161	C16	0.906100	0.502200	0.516800
