data_YEBLAT_clean_PM
_symmetry_space_group_name_H-M	'P1'
_cell_length_a	11.665000
_cell_length_b	11.924000
_cell_length_c	13.223000
_cell_angle_alpha	104.585000
_cell_angle_beta	108.268000
_cell_angle_gamma	111.132000
_symmetry_Int_Tables_number 1

loop_
_symmetry_equiv_pos_as_xyz
'x,y,z'

loop_
_atom_site_label
_atom_site_type_symbol
_atom_site_fract_x
_atom_site_fract_y
_atom_site_fract_z
La11	La1	0.749980	0.087460	0.925040
La21	La2	0.258880	0.590550	0.420860
O11	O1	0.094300	0.501900	0.200400
O21	O2	0.913300	0.336900	0.039700
O31	O3	0.090000	0.336800	0.306500
O41	O4	0.897600	0.174600	0.149500
O51	O5	0.622300	0.306800	0.696200
O61	O6	0.647000	0.220500	0.829400
O71	O7	0.825400	0.160700	0.774600
O81	O8	0.781300	0.225000	0.629500
O91	O9	0.486800	0.946300	0.776400
O101	O10	0.322300	0.774900	0.609200
O111	O11	0.518800	0.760200	0.549900
O121	O12	0.674600	0.888400	0.736200
O131	O13	0.003800	0.136900	0.972200
O141	O14	0.171400	0.085200	0.033200
O151	O15	0.611300	0.158000	0.019900
O161	O16	0.401700	0.079700	0.013700
O171	O17	0.397000	0.478500	0.360500
O181	O18	0.599300	0.480300	0.429700
O191	O19	0.018700	0.559400	0.396000
O201	O20	0.846800	0.506600	0.446800
C11	C1	0.001100	0.384500	0.142800
C21	C2	0.995000	0.290700	0.204300
C31	C3	0.670600	0.249100	0.750600
C41	C4	0.767100	0.208000	0.714800
C51	C5	0.445500	0.853700	0.681300
C61	C6	0.556200	0.832600	0.653700
C71	C7	0.050900	0.063700	0.001200
C81	C8	0.502700	0.068400	0.009300
C91	C9	0.499100	0.488400	0.439800
C101	C10	0.962000	0.519900	0.456000
La31	La3	0.250020	0.912540	0.074960
La41	La4	0.741120	0.409450	0.579140
O211	O21	0.905700	0.498100	0.799600
O221	O22	0.086700	0.663100	0.960300
O231	O23	0.910000	0.663200	0.693500
O241	O24	0.102400	0.825400	0.850500
O251	O25	0.377700	0.693200	0.303800
O261	O26	0.353000	0.779500	0.170600
O271	O27	0.174600	0.839300	0.225400
O281	O28	0.218700	0.775000	0.370500
O291	O29	0.513200	0.053700	0.223600
O301	O30	0.677700	0.225100	0.390800
O311	O31	0.481200	0.239800	0.450100
O321	O32	0.325400	0.111600	0.263800
O331	O33	0.996200	0.863100	0.027800
O341	O34	0.828600	0.914800	0.966800
O351	O35	0.388700	0.842000	0.980100
O361	O36	0.598300	0.920300	0.986300
O371	O37	0.603000	0.521500	0.639500
O381	O38	0.400700	0.519700	0.570300
O391	O39	0.981300	0.440600	0.604000
O401	O40	0.153200	0.493400	0.553200
C111	C11	0.998900	0.615500	0.857200
C121	C12	0.005000	0.709300	0.795700
C131	C13	0.329400	0.750900	0.249400
C141	C14	0.232900	0.792000	0.285200
C151	C15	0.554500	0.146300	0.318700
C161	C16	0.443800	0.167400	0.346300
C171	C17	0.949100	0.936300	0.998800
C181	C18	0.497300	0.931600	0.990700
C191	C19	0.500900	0.511600	0.560200
C201	C20	0.038000	0.480100	0.544000
