data_YEDKOI_clean_PM
_symmetry_space_group_name_H-M	'P1'
_cell_length_a	11.028200
_cell_length_b	11.028200
_cell_length_c	18.971700
_cell_angle_alpha	90.000000
_cell_angle_beta	90.000000
_cell_angle_gamma	120.000000
_symmetry_Int_Tables_number 1

loop_
_symmetry_equiv_pos_as_xyz
'x,y,z'

loop_
_atom_site_label
_atom_site_type_symbol
_atom_site_fract_x
_atom_site_fract_y
_atom_site_fract_z
O11	O1	0.330000	0.904000	0.672000
O21	O2	0.522600	0.889500	0.677700
C11	C1	0.444400	0.919400	0.641600
C21	C2	0.484100	0.985400	0.572800
C31	C3	0.602600	0.999400	0.536500
C41	C4	0.377100	0.986400	0.536300
O31	O3	0.096000	0.426000	0.672000
O41	O4	0.110500	0.633100	0.677700
C51	C5	0.080600	0.525000	0.641600
C61	C6	0.014600	0.498700	0.572800
C71	C7	0.000600	0.603200	0.536500
C81	C8	0.013600	0.390700	0.536300
O51	O5	0.574000	0.670000	0.672000
O61	O6	0.366900	0.477400	0.677700
C91	C9	0.475000	0.555600	0.641600
C101	C10	0.501300	0.515900	0.572800
C111	C11	0.396800	0.397400	0.536500
C121	C12	0.609300	0.622900	0.536300
O71	O7	0.330000	0.904000	0.828000
O81	O8	0.522600	0.889500	0.822300
C131	C13	0.444400	0.919400	0.858400
C141	C14	0.484100	0.985400	0.927200
C151	C15	0.602600	0.999400	0.963500
C161	C16	0.377100	0.986400	0.963700
O91	O9	0.096000	0.426000	0.828000
O101	O10	0.110500	0.633100	0.822300
C171	C17	0.080600	0.525000	0.858400
C181	C18	0.014600	0.498700	0.927200
C191	C19	0.000600	0.603200	0.963500
C201	C20	0.013600	0.390700	0.963700
O111	O11	0.574000	0.670000	0.828000
O121	O12	0.366900	0.477400	0.822300
C211	C21	0.475000	0.555600	0.858400
C221	C22	0.501300	0.515900	0.927200
C231	C23	0.396800	0.397400	0.963500
C241	C24	0.609300	0.622900	0.963700
O131	O13	0.904000	0.330000	0.328000
O141	O14	0.889500	0.522600	0.322300
C251	C25	0.919400	0.444400	0.358400
C261	C26	0.985400	0.484100	0.427200
C271	C27	0.999400	0.602600	0.463500
C281	C28	0.986400	0.377100	0.463700
O151	O15	0.426000	0.096000	0.328000
O161	O16	0.633100	0.110500	0.322300
C291	C29	0.525000	0.080600	0.358400
C301	C30	0.498700	0.014600	0.427200
C311	C31	0.603200	0.000600	0.463500
C321	C32	0.390700	0.013600	0.463700
O171	O17	0.670000	0.574000	0.328000
O181	O18	0.477400	0.366900	0.322300
C331	C33	0.555600	0.475000	0.358400
C341	C34	0.515900	0.501300	0.427200
C351	C35	0.397400	0.396800	0.463500
C361	C36	0.622900	0.609300	0.463700
O191	O19	0.904000	0.330000	0.172000
O201	O20	0.889500	0.522600	0.177700
C371	C37	0.919400	0.444400	0.141600
C381	C38	0.985400	0.484100	0.072800
C391	C39	0.999400	0.602600	0.036500
C401	C40	0.986400	0.377100	0.036300
O211	O21	0.426000	0.096000	0.172000
O221	O22	0.633100	0.110500	0.177700
C411	C41	0.525000	0.080600	0.141600
C421	C42	0.498700	0.014600	0.072800
C431	C43	0.603200	0.000600	0.036500
C441	C44	0.390700	0.013600	0.036300
O231	O23	0.670000	0.574000	0.172000
O241	O24	0.477400	0.366900	0.177700
C451	C45	0.555600	0.475000	0.141600
C461	C46	0.515900	0.501300	0.072800
C471	C47	0.397400	0.396800	0.036500
C481	C48	0.622900	0.609300	0.036300
Cr11	Cr1	0.223600	0.762800	0.750000
Cr21	Cr2	0.237200	0.460800	0.750000
Cr31	Cr3	0.539200	0.776400	0.750000
Cr41	Cr4	0.762800	0.223600	0.250000
Cr51	Cr5	0.460800	0.237200	0.250000
Cr61	Cr6	0.776400	0.539200	0.250000
O251	O25	0.333330	0.666670	0.750000
O261	O26	0.666670	0.333330	0.250000
