data_YEDLAV_clean_PM
_symmetry_space_group_name_H-M	'P1'
_cell_length_a	10.175100
_cell_length_b	10.175100
_cell_length_c	23.772200
_cell_angle_alpha	90.000000
_cell_angle_beta	90.000000
_cell_angle_gamma	120.000000
_symmetry_Int_Tables_number 1

loop_
_symmetry_equiv_pos_as_xyz
'x,y,z'

loop_
_atom_site_label
_atom_site_type_symbol
_atom_site_fract_x
_atom_site_fract_y
_atom_site_fract_z
O11	O1	0.875500	0.272700	0.189400
O21	O2	0.931700	0.504600	0.191600
C11	C1	0.918700	0.381700	0.103700
C21	C2	0.065200	0.434400	0.102300
C31	C3	0.135600	0.522900	0.058200
C41	C4	0.076200	0.460000	0.001700
C51	C5	0.846900	0.366000	0.049000
C61	C6	0.860300	0.376200	0.166200
O31	O3	0.727300	0.602800	0.189400
O41	O4	0.495400	0.427100	0.191600
C71	C7	0.618300	0.537000	0.103700
C81	C8	0.565600	0.630800	0.102300
C91	C9	0.477100	0.612700	0.058200
C101	C10	0.540000	0.616200	0.001700
C111	C11	0.634000	0.480900	0.049000
C121	C12	0.623800	0.484100	0.166200
O51	O5	0.397200	0.124500	0.189400
O61	O6	0.572900	0.068300	0.191600
C131	C13	0.463000	0.081300	0.103700
C141	C14	0.369200	0.934800	0.102300
C151	C15	0.387300	0.864400	0.058200
C161	C16	0.383800	0.923800	0.001700
C171	C17	0.519100	0.153100	0.049000
C181	C18	0.515900	0.139700	0.166200
O71	O7	0.875500	0.272700	0.310600
O81	O8	0.931700	0.504600	0.308400
C191	C19	0.918700	0.381700	0.396300
C201	C20	0.065200	0.434400	0.397700
C211	C21	0.135600	0.522900	0.441800
C221	C22	0.076200	0.460000	0.498300
C231	C23	0.846900	0.366000	0.451000
C241	C24	0.860300	0.376200	0.333800
O91	O9	0.727300	0.602800	0.310600
O101	O10	0.495400	0.427100	0.308400
C251	C25	0.618300	0.537000	0.396300
C261	C26	0.565600	0.630800	0.397700
C271	C27	0.477100	0.612700	0.441800
C281	C28	0.540000	0.616200	0.498300
C291	C29	0.634000	0.480900	0.451000
C301	C30	0.623800	0.484100	0.333800
O111	O11	0.397200	0.124500	0.310600
O121	O12	0.572900	0.068300	0.308400
C311	C31	0.463000	0.081300	0.396300
C321	C32	0.369200	0.934800	0.397700
C331	C33	0.387300	0.864400	0.441800
C341	C34	0.383800	0.923800	0.498300
C351	C35	0.519100	0.153100	0.451000
C361	C36	0.515900	0.139700	0.333800
O131	O13	0.272700	0.875500	0.810600
O141	O14	0.504600	0.931700	0.808400
C371	C37	0.381700	0.918700	0.896300
C381	C38	0.434400	0.065200	0.897700
C391	C39	0.522900	0.135600	0.941800
C401	C40	0.460000	0.076200	0.998300
C411	C41	0.366000	0.846900	0.951000
C421	C42	0.376200	0.860300	0.833800
O151	O15	0.602800	0.727300	0.810600
O161	O16	0.427100	0.495400	0.808400
C431	C43	0.537000	0.618300	0.896300
C441	C44	0.630800	0.565600	0.897700
C451	C45	0.612700	0.477100	0.941800
C461	C46	0.616200	0.540000	0.998300
C471	C47	0.480900	0.634000	0.951000
C481	C48	0.484100	0.623800	0.833800
O171	O17	0.124500	0.397200	0.810600
O181	O18	0.068300	0.572900	0.808400
C491	C49	0.081300	0.463000	0.896300
C501	C50	0.934800	0.369200	0.897700
C511	C51	0.864400	0.387300	0.941800
C521	C52	0.923800	0.383800	0.998300
C531	C53	0.153100	0.519100	0.951000
C541	C54	0.139700	0.515900	0.833800
O191	O19	0.272700	0.875500	0.689400
O201	O20	0.504600	0.931700	0.691600
C551	C55	0.381700	0.918700	0.603700
C561	C56	0.434400	0.065200	0.602300
C571	C57	0.522900	0.135600	0.558200
C581	C58	0.460000	0.076200	0.501700
C591	C59	0.366000	0.846900	0.549000
C601	C60	0.376200	0.860300	0.666200
O211	O21	0.602800	0.727300	0.689400
O221	O22	0.427100	0.495400	0.691600
C611	C61	0.537000	0.618300	0.603700
C621	C62	0.630800	0.565600	0.602300
C631	C63	0.612700	0.477100	0.558200
C641	C64	0.616200	0.540000	0.501700
C651	C65	0.480900	0.634000	0.549000
C661	C66	0.484100	0.623800	0.666200
O231	O23	0.124500	0.397200	0.689400
O241	O24	0.068300	0.572900	0.691600
C671	C67	0.081300	0.463000	0.603700
C681	C68	0.934800	0.369200	0.602300
C691	C69	0.864400	0.387300	0.558200
C701	C70	0.923800	0.383800	0.501700
C711	C71	0.153100	0.519100	0.549000
C721	C72	0.139700	0.515900	0.666200
Fe11	Fe1	0.727100	0.163900	0.250000
Fe21	Fe2	0.836100	0.563200	0.250000
Fe31	Fe3	0.436800	0.272900	0.250000
Fe41	Fe4	0.163900	0.727100	0.750000
Fe51	Fe5	0.563200	0.836100	0.750000
Fe61	Fe6	0.272900	0.436800	0.750000
O251	O25	0.666670	0.333330	0.250000
O261	O26	0.333330	0.666670	0.750000
