data_YEFNOM_clean_PM
_symmetry_space_group_name_H-M	'P1'
_cell_length_a	12.717000
_cell_length_b	12.717000
_cell_length_c	12.717000
_cell_angle_alpha	90.000000
_cell_angle_beta	90.000000
_cell_angle_gamma	90.000000
_symmetry_Int_Tables_number 1

loop_
_symmetry_equiv_pos_as_xyz
'x,y,z'

loop_
_atom_site_label
_atom_site_type_symbol
_atom_site_fract_x
_atom_site_fract_y
_atom_site_fract_z
Cd11	Cd1	0.125000	0.125000	0.125000
Cd21	Cd2	0.125000	0.625000	0.625000
Cd31	Cd3	0.625000	0.125000	0.625000
Cd41	Cd4	0.625000	0.625000	0.125000
Cd51	Cd5	0.875000	0.375000	0.375000
Cd61	Cd6	0.875000	0.875000	0.875000
Cd71	Cd7	0.375000	0.375000	0.875000
Cd81	Cd8	0.375000	0.875000	0.375000
C11	C1	0.025700	0.025700	0.025700
C21	C2	0.025700	0.525700	0.525700
C31	C3	0.525700	0.025700	0.525700
C41	C4	0.525700	0.525700	0.025700
C51	C5	0.724300	0.224300	0.525700
C61	C6	0.724300	0.724300	0.025700
C71	C7	0.224300	0.525700	0.724300
C81	C8	0.224300	0.025700	0.224300
C91	C9	0.724300	0.025700	0.724300
C101	C10	0.525700	0.724300	0.224300
C111	C11	0.025700	0.724300	0.724300
C121	C12	0.775700	0.275700	0.474300
C131	C13	0.775700	0.775700	0.974300
C141	C14	0.974300	0.974300	0.974300
C151	C15	0.974300	0.474300	0.474300
C161	C16	0.474300	0.974300	0.474300
C171	C17	0.474300	0.474300	0.974300
C181	C18	0.275700	0.474300	0.775700
C191	C19	0.275700	0.974300	0.275700
C201	C20	0.775700	0.974300	0.775700
C211	C21	0.474300	0.775700	0.275700
C221	C22	0.974300	0.775700	0.775700
C231	C23	0.275700	0.775700	0.474300
C241	C24	0.275700	0.275700	0.974300
C251	C25	0.775700	0.474300	0.275700
C261	C26	0.474300	0.275700	0.775700
C271	C27	0.974300	0.275700	0.275700
C281	C28	0.224300	0.724300	0.525700
C291	C29	0.224300	0.224300	0.025700
C301	C30	0.724300	0.525700	0.224300
C311	C31	0.525700	0.224300	0.724300
C321	C32	0.025700	0.224300	0.224300
