data_YEFPEE_clean_PM
_symmetry_space_group_name_H-M	'P1'
_cell_length_a	12.243000
_cell_length_b	12.243000
_cell_length_c	12.243000
_cell_angle_alpha	90.000000
_cell_angle_beta	90.000000
_cell_angle_gamma	90.000000
_symmetry_Int_Tables_number 1

loop_
_symmetry_equiv_pos_as_xyz
'x,y,z'

loop_
_atom_site_label
_atom_site_type_symbol
_atom_site_fract_x
_atom_site_fract_y
_atom_site_fract_z
Cd11	Cd1	0.125000	0.125000	0.125000
Cd21	Cd2	0.125000	0.625000	0.625000
Cd31	Cd3	0.625000	0.125000	0.625000
Cd41	Cd4	0.625000	0.625000	0.125000
Cd51	Cd5	0.875000	0.375000	0.375000
Cd61	Cd6	0.875000	0.875000	0.875000
Cd71	Cd7	0.375000	0.375000	0.875000
Cd81	Cd8	0.375000	0.875000	0.375000
C11	C1	0.027200	0.027200	0.027200
C21	C2	0.027200	0.527200	0.527200
C31	C3	0.527200	0.027200	0.527200
C41	C4	0.527200	0.527200	0.027200
C51	C5	0.722800	0.222800	0.527200
C61	C6	0.722800	0.722800	0.027200
C71	C7	0.222800	0.527200	0.722800
C81	C8	0.222800	0.027200	0.222800
C91	C9	0.722800	0.027200	0.722800
C101	C10	0.527200	0.722800	0.222800
C111	C11	0.027200	0.722800	0.722800
C121	C12	0.777200	0.277200	0.472800
C131	C13	0.777200	0.777200	0.972800
C141	C14	0.972800	0.972800	0.972800
C151	C15	0.972800	0.472800	0.472800
C161	C16	0.472800	0.972800	0.472800
C171	C17	0.472800	0.472800	0.972800
C181	C18	0.277200	0.472800	0.777200
C191	C19	0.277200	0.972800	0.277200
C201	C20	0.777200	0.972800	0.777200
C211	C21	0.472800	0.777200	0.277200
C221	C22	0.972800	0.777200	0.777200
C231	C23	0.277200	0.777200	0.472800
C241	C24	0.277200	0.277200	0.972800
C251	C25	0.777200	0.472800	0.277200
C261	C26	0.472800	0.277200	0.777200
C271	C27	0.972800	0.277200	0.277200
C281	C28	0.222800	0.722800	0.527200
C291	C29	0.222800	0.222800	0.027200
C301	C30	0.722800	0.527200	0.222800
C311	C31	0.527200	0.222800	0.722800
C321	C32	0.027200	0.222800	0.222800
