data_YEGHIC_clean_PM
_symmetry_space_group_name_H-M	'P1'
_cell_length_a	20.883000
_cell_length_b	20.883000
_cell_length_c	32.658000
_cell_angle_alpha	90.000000
_cell_angle_beta	90.000000
_cell_angle_gamma	120.000000
_symmetry_Int_Tables_number 1

loop_
_symmetry_equiv_pos_as_xyz
'x,y,z'

loop_
_atom_site_label
_atom_site_type_symbol
_atom_site_fract_x
_atom_site_fract_y
_atom_site_fract_z
C11	C1	0.015800	0.306300	0.812460
C21	C2	0.927100	0.311600	0.759310
C31	C3	0.984200	0.178800	0.788440
C41	C4	0.111700	0.289500	0.757790
N11	N1	0.023600	0.328100	0.845500
N21	N2	0.887200	0.332600	0.765460
N31	N3	0.968600	0.128100	0.808340
N41	N4	0.170000	0.297500	0.760180
C51	C5	0.682470	0.639630	0.145790
C61	C6	0.593770	0.644930	0.092640
C71	C7	0.650870	0.512130	0.121770
C81	C8	0.778370	0.622830	0.091120
N51	N5	0.690270	0.661430	0.178830
N61	N6	0.553870	0.665930	0.098790
N71	N7	0.635270	0.461430	0.141670
N81	N8	0.836670	0.630830	0.093510
C91	C9	0.349130	0.972970	0.479130
C101	C10	0.260430	0.978270	0.425980
C111	C11	0.317530	0.845470	0.455110
C121	C12	0.445030	0.956170	0.424460
N91	N9	0.356930	0.994770	0.512170
N101	N10	0.220530	0.999270	0.432130
N111	N11	0.301930	0.794770	0.475010
N121	N12	0.503330	0.964170	0.426850
C131	C13	0.693700	0.709500	0.812460
C141	C14	0.688400	0.615500	0.759310
C151	C15	0.821200	0.805400	0.788440
C161	C16	0.710500	0.822200	0.757790
N131	N13	0.671900	0.695500	0.845500
N141	N14	0.667400	0.554600	0.765460
N151	N15	0.871900	0.840500	0.808340
N161	N16	0.702500	0.872500	0.760180
C171	C17	0.360370	0.042830	0.145790
C181	C18	0.355070	0.948830	0.092640
C191	C19	0.487870	0.138730	0.121770
C201	C20	0.377170	0.155530	0.091120
N171	N17	0.338570	0.028830	0.178830
N181	N18	0.334070	0.887930	0.098790
N191	N19	0.538570	0.173830	0.141670
N201	N20	0.369170	0.205830	0.093510
C211	C21	0.027030	0.376170	0.479130
C221	C22	0.021730	0.282170	0.425980
C231	C23	0.154530	0.472070	0.455110
C241	C24	0.043830	0.488870	0.424460
N211	N21	0.005230	0.362170	0.512170
N221	N22	0.000730	0.221270	0.432130
N231	N23	0.205230	0.507170	0.475010
N241	N24	0.035830	0.539170	0.426850
C251	C25	0.290500	0.984200	0.812460
C261	C26	0.384500	0.072900	0.759310
C271	C27	0.194600	0.015800	0.788440
C281	C28	0.177800	0.888300	0.757790
N251	N25	0.304500	0.976400	0.845500
N261	N26	0.445400	0.112800	0.765460
N271	N27	0.159500	0.031400	0.808340
N281	N28	0.127500	0.830000	0.760180
C291	C29	0.957170	0.317530	0.145790
C301	C30	0.051170	0.406230	0.092640
C311	C31	0.861270	0.349130	0.121770
C321	C32	0.844470	0.221630	0.091120
N291	N29	0.971170	0.309730	0.178830
N301	N30	0.112070	0.446130	0.098790
N311	N31	0.826170	0.364730	0.141670
N321	N32	0.794170	0.163330	0.093510
C331	C33	0.623830	0.650870	0.479130
C341	C34	0.717830	0.739570	0.425980
C351	C35	0.527930	0.682470	0.455110
C361	C36	0.511130	0.554970	0.424460
N331	N33	0.637830	0.643070	0.512170
N341	N34	0.778730	0.779470	0.432130
N351	N35	0.492830	0.698070	0.475010
N361	N36	0.460830	0.496670	0.426850
C371	C37	0.306300	0.015800	0.687540
C381	C38	0.311600	0.927100	0.740690
C391	C39	0.178800	0.984200	0.711560
C401	C40	0.289500	0.111700	0.742210
N371	N37	0.328100	0.023600	0.654500
N381	N38	0.332600	0.887200	0.734540
N391	N39	0.128100	0.968600	0.691660
N401	N40	0.297500	0.170000	0.739820
C411	C41	0.972970	0.349130	0.020870
C421	C42	0.978270	0.260430	0.074020
C431	C43	0.845470	0.317530	0.044890
C441	C44	0.956170	0.445030	0.075540
N411	N41	0.994770	0.356930	0.987830
N421	N42	0.999270	0.220530	0.067870
N431	N43	0.794770	0.301930	0.024990
N441	N44	0.964170	0.503330	0.073150
C451	C45	0.639630	0.682470	0.354210
C461	C46	0.644930	0.593770	0.407360
C471	C47	0.512130	0.650870	0.378230
C481	C48	0.622830	0.778370	0.408880
N451	N45	0.661430	0.690270	0.321170
N461	N46	0.665930	0.553870	0.401210
N471	N47	0.461430	0.635270	0.358330
N481	N48	0.630830	0.836670	0.406490
C491	C49	0.709500	0.693700	0.687540
C501	C50	0.615500	0.688400	0.740690
C511	C51	0.805400	0.821200	0.711560
C521	C52	0.822200	0.710500	0.742210
N491	N49	0.695500	0.671900	0.654500
N501	N50	0.554600	0.667400	0.734540
N511	N51	0.840500	0.871900	0.691660
N521	N52	0.872500	0.702500	0.739820
C531	C53	0.376170	0.027030	0.020870
C541	C54	0.282170	0.021730	0.074020
C551	C55	0.472070	0.154530	0.044890
C561	C56	0.488870	0.043830	0.075540
N531	N53	0.362170	0.005230	0.987830
N541	N54	0.221270	0.000730	0.067870
N551	N55	0.507170	0.205230	0.024990
N561	N56	0.539170	0.035830	0.073150
C571	C57	0.042830	0.360370	0.354210
C581	C58	0.948830	0.355070	0.407360
C591	C59	0.138730	0.487870	0.378230
C601	C60	0.155530	0.377170	0.408880
N571	N57	0.028830	0.338570	0.321170
N581	N58	0.887930	0.334070	0.401210
N591	N59	0.173830	0.538570	0.358330
N601	N60	0.205830	0.369170	0.406490
C611	C61	0.984200	0.290500	0.687540
C621	C62	0.072900	0.384500	0.740690
C631	C63	0.015800	0.194600	0.711560
C641	C64	0.888300	0.177800	0.742210
N611	N61	0.976400	0.304500	0.654500
N621	N62	0.112800	0.445400	0.734540
N631	N63	0.031400	0.159500	0.691660
N641	N64	0.830000	0.127500	0.739820
C651	C65	0.650870	0.623830	0.020870
C661	C66	0.739570	0.717830	0.074020
C671	C67	0.682470	0.527930	0.044890
C681	C68	0.554970	0.511130	0.075540
N651	N65	0.643070	0.637830	0.987830
N661	N66	0.779470	0.778730	0.067870
N671	N67	0.698070	0.492830	0.024990
N681	N68	0.496670	0.460830	0.073150
C691	C69	0.317530	0.957170	0.354210
C701	C70	0.406230	0.051170	0.407360
C711	C71	0.349130	0.861270	0.378230
C721	C72	0.221630	0.844470	0.408880
N691	N69	0.309730	0.971170	0.321170
N701	N70	0.446130	0.112070	0.401210
N711	N71	0.364730	0.826170	0.358330
N721	N72	0.163330	0.794170	0.406490
C731	C73	0.984200	0.693700	0.187540
C741	C74	0.072900	0.688400	0.240690
C751	C75	0.015800	0.821200	0.211560
C761	C76	0.888300	0.710500	0.242210
N731	N73	0.976400	0.671900	0.154500
N741	N74	0.112800	0.667400	0.234540
N751	N75	0.031400	0.871900	0.191660
N761	N76	0.830000	0.702500	0.239820
C771	C77	0.650870	0.027030	0.520870
C781	C78	0.739570	0.021730	0.574020
C791	C79	0.682470	0.154530	0.544890
C801	C80	0.554970	0.043830	0.575540
N771	N77	0.643070	0.005230	0.487830
N781	N78	0.779470	0.000730	0.567870
N791	N79	0.698070	0.205230	0.524990
N801	N80	0.496670	0.035830	0.573150
C811	C81	0.317530	0.360370	0.854210
C821	C82	0.406230	0.355070	0.907360
C831	C83	0.349130	0.487870	0.878230
C841	C84	0.221630	0.377170	0.908880
N811	N81	0.309730	0.338570	0.821170
N821	N82	0.446130	0.334070	0.901210
N831	N83	0.364730	0.538570	0.858330
N841	N84	0.163330	0.369170	0.906490
C851	C85	0.306300	0.290500	0.187540
C861	C86	0.311600	0.384500	0.240690
C871	C87	0.178800	0.194600	0.211560
C881	C88	0.289500	0.177800	0.242210
N851	N85	0.328100	0.304500	0.154500
N861	N86	0.332600	0.445400	0.234540
N871	N87	0.128100	0.159500	0.191660
N881	N88	0.297500	0.127500	0.239820
C891	C89	0.972970	0.623830	0.520870
C901	C90	0.978270	0.717830	0.574020
C911	C91	0.845470	0.527930	0.544890
C921	C92	0.956170	0.511130	0.575540
N891	N89	0.994770	0.637830	0.487830
N901	N90	0.999270	0.778730	0.567870
N911	N91	0.794770	0.492830	0.524990
N921	N92	0.964170	0.460830	0.573150
C931	C93	0.639630	0.957170	0.854210
C941	C94	0.644930	0.051170	0.907360
C951	C95	0.512130	0.861270	0.878230
C961	C96	0.622830	0.844470	0.908880
N931	N93	0.661430	0.971170	0.821170
N941	N94	0.665930	0.112070	0.901210
N951	N95	0.461430	0.826170	0.858330
N961	N96	0.630830	0.794170	0.906490
C971	C97	0.709500	0.015800	0.187540
C981	C98	0.615500	0.927100	0.240690
C991	C99	0.805400	0.984200	0.211560
C1001	C100	0.822200	0.111700	0.242210
N971	N97	0.695500	0.023600	0.154500
N981	N98	0.554600	0.887200	0.234540
N991	N99	0.840500	0.968600	0.191660
N1001	N100	0.872500	0.170000	0.239820
C1011	C101	0.376170	0.349130	0.520870
C1021	C102	0.282170	0.260430	0.574020
C1031	C103	0.472070	0.317530	0.544890
C1041	C104	0.488870	0.445030	0.575540
N1011	N101	0.362170	0.356930	0.487830
N1021	N102	0.221270	0.220530	0.567870
N1031	N103	0.507170	0.301930	0.524990
N1041	N104	0.539170	0.503330	0.573150
C1051	C105	0.042830	0.682470	0.854210
C1061	C106	0.948830	0.593770	0.907360
C1071	C107	0.138730	0.650870	0.878230
C1081	C108	0.155530	0.778370	0.908880
N1051	N105	0.028830	0.690270	0.821170
N1061	N106	0.887930	0.553870	0.901210
N1071	N107	0.173830	0.635270	0.858330
N1081	N108	0.205830	0.836670	0.906490
C1091	C109	0.693700	0.984200	0.312460
C1101	C110	0.688400	0.072900	0.259310
C1111	C111	0.821200	0.015800	0.288440
C1121	C112	0.710500	0.888300	0.257790
N1091	N109	0.671900	0.976400	0.345500
N1101	N110	0.667400	0.112800	0.265460
N1111	N111	0.871900	0.031400	0.308340
N1121	N112	0.702500	0.830000	0.260180
C1131	C113	0.360370	0.317530	0.645790
C1141	C114	0.355070	0.406230	0.592640
C1151	C115	0.487870	0.349130	0.621770
C1161	C116	0.377170	0.221630	0.591120
N1131	N113	0.338570	0.309730	0.678830
N1141	N114	0.334070	0.446130	0.598790
N1151	N115	0.538570	0.364730	0.641670
N1161	N116	0.369170	0.163330	0.593510
C1171	C117	0.027030	0.650870	0.979130
C1181	C118	0.021730	0.739570	0.925980
C1191	C119	0.154530	0.682470	0.955110
C1201	C120	0.043830	0.554970	0.924460
N1171	N117	0.005230	0.643070	0.012170
N1181	N118	0.000730	0.779470	0.932130
N1191	N119	0.205230	0.698070	0.975010
N1201	N120	0.035830	0.496670	0.926850
C1211	C121	0.290500	0.306300	0.312460
C1221	C122	0.384500	0.311600	0.259310
C1231	C123	0.194600	0.178800	0.288440
C1241	C124	0.177800	0.289500	0.257790
N1211	N121	0.304500	0.328100	0.345500
N1221	N122	0.445400	0.332600	0.265460
N1231	N123	0.159500	0.128100	0.308340
N1241	N124	0.127500	0.297500	0.260180
C1251	C125	0.957170	0.639630	0.645790
C1261	C126	0.051170	0.644930	0.592640
C1271	C127	0.861270	0.512130	0.621770
C1281	C128	0.844470	0.622830	0.591120
N1251	N125	0.971170	0.661430	0.678830
N1261	N126	0.112070	0.665930	0.598790
N1271	N127	0.826170	0.461430	0.641670
N1281	N128	0.794170	0.630830	0.593510
C1291	C129	0.623830	0.972970	0.979130
C1301	C130	0.717830	0.978270	0.925980
C1311	C131	0.527930	0.845470	0.955110
C1321	C132	0.511130	0.956170	0.924460
N1291	N129	0.637830	0.994770	0.012170
N1301	N130	0.778730	0.999270	0.932130
N1311	N131	0.492830	0.794770	0.975010
N1321	N132	0.460830	0.964170	0.926850
C1331	C133	0.015800	0.709500	0.312460
C1341	C134	0.927100	0.615500	0.259310
C1351	C135	0.984200	0.805400	0.288440
C1361	C136	0.111700	0.822200	0.257790
N1331	N133	0.023600	0.695500	0.345500
N1341	N134	0.887200	0.554600	0.265460
N1351	N135	0.968600	0.840500	0.308340
N1361	N136	0.170000	0.872500	0.260180
C1371	C137	0.682470	0.042830	0.645790
C1381	C138	0.593770	0.948830	0.592640
C1391	C139	0.650870	0.138730	0.621770
C1401	C140	0.778370	0.155530	0.591120
N1371	N137	0.690270	0.028830	0.678830
N1381	N138	0.553870	0.887930	0.598790
N1391	N139	0.635270	0.173830	0.641670
N1401	N140	0.836670	0.205830	0.593510
C1411	C141	0.349130	0.376170	0.979130
C1421	C142	0.260430	0.282170	0.925980
C1431	C143	0.317530	0.472070	0.955110
C1441	C144	0.445030	0.488870	0.924460
N1411	N141	0.356930	0.362170	0.012170
N1421	N142	0.220530	0.221270	0.932130
N1431	N143	0.301930	0.507170	0.975010
N1441	N144	0.503330	0.539170	0.926850
Mo11	Mo1	0.000000	0.267420	0.750000
Mo21	Mo2	0.666670	0.600750	0.083330
Mo31	Mo3	0.333330	0.934090	0.416670
Mo41	Mo4	0.732580	0.732580	0.750000
Mo51	Mo5	0.399250	0.065910	0.083330
Mo61	Mo6	0.065910	0.399250	0.416670
Mo71	Mo7	0.267420	0.000000	0.750000
Mo81	Mo8	0.934090	0.333330	0.083330
Mo91	Mo9	0.600750	0.666670	0.416670
Mo101	Mo10	0.000000	0.732580	0.250000
Mo111	Mo11	0.666670	0.065910	0.583330
Mo121	Mo12	0.333330	0.399250	0.916670
Mo131	Mo13	0.267420	0.267420	0.250000
Mo141	Mo14	0.934090	0.600750	0.583330
Mo151	Mo15	0.600750	0.934090	0.916670
Mo161	Mo16	0.732580	0.000000	0.250000
Mo171	Mo17	0.399250	0.333330	0.583330
Mo181	Mo18	0.065910	0.666670	0.916670
Nd11	Nd1	0.051810	0.385140	0.916670
Nd21	Nd2	0.718470	0.718470	0.250000
Nd31	Nd3	0.614860	0.666670	0.916670
Nd41	Nd4	0.281530	0.000000	0.250000
Nd51	Nd5	0.333330	0.948190	0.916670
Nd61	Nd6	0.000000	0.281530	0.250000
Nd71	Nd7	0.385140	0.051810	0.583330
Nd81	Nd8	0.666670	0.614860	0.583330
Nd91	Nd9	0.948190	0.333330	0.583330
Nd101	Nd10	0.948190	0.614860	0.083330
Nd111	Nd11	0.385140	0.333330	0.083330
Nd121	Nd12	0.666670	0.051810	0.083330
Nd131	Nd13	0.614860	0.948190	0.416670
Nd141	Nd14	0.281530	0.281530	0.750000
Nd151	Nd15	0.333330	0.385140	0.416670
Nd161	Nd16	0.000000	0.718470	0.750000
Nd171	Nd17	0.051810	0.666670	0.416670
Nd181	Nd18	0.718470	0.000000	0.750000
