data_YEGTEK_clean_PM
_symmetry_space_group_name_H-M	'P1'
_cell_length_a	8.132400
_cell_length_b	11.344000
_cell_length_c	39.266000
_cell_angle_alpha	90.000000
_cell_angle_beta	90.000000
_cell_angle_gamma	102.908000
_symmetry_Int_Tables_number 1

loop_
_symmetry_equiv_pos_as_xyz
'x,y,z'

loop_
_atom_site_label
_atom_site_type_symbol
_atom_site_fract_x
_atom_site_fract_y
_atom_site_fract_z
Cd11	Cd1	0.759280	0.481460	0.947870
Cd21	Cd2	0.095040	0.595440	0.299490
Cd31	Cd3	0.011260	0.809510	0.122390
Cd41	Cd4	0.740720	0.518540	0.447870
Cd51	Cd5	0.404960	0.404560	0.799490
Cd61	Cd6	0.488740	0.190490	0.622390
Cd71	Cd7	0.240720	0.518540	0.052130
Cd81	Cd8	0.904960	0.404560	0.700510
Cd91	Cd9	0.988740	0.190490	0.877610
Cd101	Cd10	0.259280	0.481460	0.552130
Cd111	Cd11	0.595040	0.595440	0.200510
Cd121	Cd12	0.511260	0.809510	0.377610
H11	H1	0.499600	0.829200	0.029400
H21	H2	0.858000	0.133500	0.039000
H31	H3	0.772900	0.968500	0.948500
H41	H4	0.506100	0.805100	0.942600
H51	H5	0.419800	0.744400	0.975900
H61	H6	0.520900	0.942600	0.082400
H71	H7	0.664300	0.060200	0.087200
H81	H8	0.030700	0.133200	0.958200
H91	H9	0.047100	0.206200	0.992500
H101	H10	0.887100	0.113700	0.213300
H111	H11	0.044500	0.887700	0.277000
H121	H12	0.875200	0.167000	0.313600
H131	H13	0.788600	0.277600	0.231400
H141	H14	0.695700	0.261100	0.266500
H151	H15	0.028600	0.963800	0.190700
H161	H16	0.105800	0.883500	0.215800
H171	H17	0.039000	0.046800	0.350800
H181	H18	0.068400	0.924400	0.336100
H191	H19	0.000400	0.170800	0.529400
H201	H20	0.642000	0.866500	0.539000
H211	H21	0.727100	0.031500	0.448500
H221	H22	0.993900	0.194900	0.442600
H231	H23	0.080200	0.255600	0.475900
H241	H24	0.979100	0.057400	0.582400
H251	H25	0.835700	0.939800	0.587200
H261	H26	0.469300	0.866800	0.458200
H271	H27	0.452900	0.793800	0.492500
H281	H28	0.612900	0.886300	0.713300
H291	H29	0.455500	0.112300	0.777000
H301	H30	0.624800	0.833000	0.813600
H311	H31	0.711400	0.722400	0.731400
H321	H32	0.804300	0.738900	0.766500
H331	H33	0.471400	0.036200	0.690700
H341	H34	0.394200	0.116500	0.715800
H351	H35	0.461000	0.953200	0.850800
H361	H36	0.431600	0.075600	0.836100
H371	H37	0.500400	0.170800	0.970600
H381	H38	0.142000	0.866500	0.961000
H391	H39	0.227100	0.031500	0.051500
H401	H40	0.493900	0.194900	0.057400
H411	H41	0.580200	0.255600	0.024100
H421	H42	0.479100	0.057400	0.917600
H431	H43	0.335700	0.939800	0.912800
H441	H44	0.969300	0.866800	0.041800
H451	H45	0.952900	0.793800	0.007500
H461	H46	0.112900	0.886300	0.786700
H471	H47	0.955500	0.112300	0.723000
H481	H48	0.124800	0.833000	0.686400
H491	H49	0.211400	0.722400	0.768600
H501	H50	0.304300	0.738900	0.733500
H511	H51	0.971400	0.036200	0.809300
H521	H52	0.894200	0.116500	0.784200
H531	H53	0.961000	0.953200	0.649200
H541	H54	0.931600	0.075600	0.663900
H551	H55	0.999600	0.829200	0.470600
H561	H56	0.358000	0.133500	0.461000
H571	H57	0.272900	0.968500	0.551500
H581	H58	0.006100	0.805100	0.557400
H591	H59	0.919800	0.744400	0.524100
H601	H60	0.020900	0.942600	0.417600
H611	H61	0.164300	0.060200	0.412800
H621	H62	0.530700	0.133200	0.541800
H631	H63	0.547100	0.206200	0.507500
H641	H64	0.387100	0.113700	0.286700
H651	H65	0.544500	0.887700	0.223000
H661	H66	0.375200	0.167000	0.186400
H671	H67	0.288600	0.277600	0.268600
H681	H68	0.195700	0.261100	0.233500
H691	H69	0.528600	0.963800	0.309300
H701	H70	0.605800	0.883500	0.284200
H711	H71	0.539000	0.046800	0.149200
H721	H72	0.568400	0.924400	0.163900
C11	C1	0.623900	0.882100	0.985850
C21	C2	0.585500	0.888200	0.019950
C31	C3	0.673400	0.981200	0.040330
C41	C4	0.798500	0.070800	0.025610
C51	C5	0.835400	0.067700	0.991260
C61	C6	0.747800	0.972000	0.971560
C71	C7	0.527800	0.776600	0.965090
C81	C8	0.622200	0.676600	0.961510
C91	C9	0.638800	0.978600	0.078040
C101	C10	0.750400	0.903800	0.094720
C111	C11	0.968200	0.168000	0.975100
C121	C12	0.890400	0.262500	0.958260
C131	C13	0.872300	0.159400	0.262430
C141	C14	0.906300	0.090300	0.235340
C151	C15	0.968200	0.987400	0.240230
C161	C16	0.998800	0.954800	0.273340
C171	C17	0.963000	0.019800	0.300920
C181	C18	0.899600	0.122500	0.295100
C191	C19	0.805200	0.271200	0.255690
C201	C20	0.917700	0.389100	0.268200
C211	C21	0.005000	0.912400	0.210670
C221	C22	0.864400	0.805200	0.202220
C231	C23	0.990200	0.977600	0.336720
C241	C24	0.824400	0.911200	0.351960
C251	C25	0.876100	0.117900	0.485850
C261	C26	0.914500	0.111800	0.519950
C271	C27	0.826600	0.018800	0.540330
C281	C28	0.701500	0.929200	0.525610
C291	C29	0.664600	0.932300	0.491260
C301	C30	0.752200	0.028000	0.471560
C311	C31	0.972200	0.223400	0.465090
C321	C32	0.877800	0.323400	0.461510
C331	C33	0.861200	0.021400	0.578040
C341	C34	0.749600	0.096200	0.594720
C351	C35	0.531800	0.832000	0.475100
C361	C36	0.609600	0.737500	0.458260
C371	C37	0.627700	0.840600	0.762430
C381	C38	0.593700	0.909700	0.735340
C391	C39	0.531800	0.012600	0.740230
C401	C40	0.501200	0.045200	0.773340
C411	C41	0.537000	0.980200	0.800920
C421	C42	0.600400	0.877500	0.795100
C431	C43	0.694800	0.728800	0.755690
C441	C44	0.582300	0.610900	0.768200
C451	C45	0.495000	0.087600	0.710670
C461	C46	0.635600	0.194800	0.702220
C471	C47	0.509800	0.022400	0.836720
C481	C48	0.675600	0.088800	0.851960
C491	C49	0.376100	0.117900	0.014150
C501	C50	0.414500	0.111800	0.980050
C511	C51	0.326600	0.018800	0.959670
C521	C52	0.201500	0.929200	0.974390
C531	C53	0.164600	0.932300	0.008740
C541	C54	0.252200	0.028000	0.028440
C551	C55	0.472200	0.223400	0.034910
C561	C56	0.377800	0.323400	0.038490
C571	C57	0.361200	0.021400	0.921960
C581	C58	0.249600	0.096200	0.905280
C591	C59	0.031800	0.832000	0.024900
C601	C60	0.109600	0.737500	0.041740
C611	C61	0.127700	0.840600	0.737570
C621	C62	0.093700	0.909700	0.764660
C631	C63	0.031800	0.012600	0.759770
C641	C64	0.001200	0.045200	0.726660
C651	C65	0.037000	0.980200	0.699080
C661	C66	0.100400	0.877500	0.704900
C671	C67	0.194800	0.728800	0.744310
C681	C68	0.082300	0.610900	0.731800
C691	C69	0.995000	0.087600	0.789330
C701	C70	0.135600	0.194800	0.797780
C711	C71	0.009800	0.022400	0.663280
C721	C72	0.175600	0.088800	0.648040
C731	C73	0.123900	0.882100	0.514150
C741	C74	0.085500	0.888200	0.480050
C751	C75	0.173400	0.981200	0.459670
C761	C76	0.298500	0.070800	0.474390
C771	C77	0.335400	0.067700	0.508740
C781	C78	0.247800	0.972000	0.528440
C791	C79	0.027800	0.776600	0.534910
C801	C80	0.122200	0.676600	0.538490
C811	C81	0.138800	0.978600	0.421960
C821	C82	0.250400	0.903800	0.405280
C831	C83	0.468200	0.168000	0.524900
C841	C84	0.390400	0.262500	0.541740
C851	C85	0.372300	0.159400	0.237570
C861	C86	0.406300	0.090300	0.264660
C871	C87	0.468200	0.987400	0.259770
C881	C88	0.498800	0.954800	0.226660
C891	C89	0.463000	0.019800	0.199080
C901	C90	0.399600	0.122500	0.204900
C911	C91	0.305200	0.271200	0.244310
C921	C92	0.417700	0.389100	0.231800
C931	C93	0.505000	0.912400	0.289330
C941	C94	0.364400	0.805200	0.297780
C951	C95	0.490200	0.977600	0.163280
C961	C96	0.324400	0.911200	0.148040
O11	O1	0.651500	0.617200	0.986880
O21	O2	0.670300	0.653500	0.932180
O31	O3	0.888600	0.959400	0.106550
O41	O4	0.707700	0.790300	0.094620
O51	O5	0.836400	0.335100	0.977640
O61	O6	0.879700	0.268000	0.926850
O71	O7	0.935400	0.402800	0.300000
O81	O8	0.988000	0.468700	0.247850
O91	O9	0.778900	0.746600	0.225890
O101	O10	0.836300	0.776800	0.171660
O111	O11	0.749200	0.966500	0.372430
O121	O12	0.759600	0.804000	0.343630
O131	O13	0.848500	0.382800	0.486880
O141	O14	0.829700	0.346500	0.432180
O151	O15	0.611400	0.040600	0.606550
O161	O16	0.792300	0.209700	0.594620
O171	O17	0.663600	0.664900	0.477640
O181	O18	0.620300	0.732000	0.426850
O191	O19	0.564600	0.597200	0.800000
O201	O20	0.512000	0.531300	0.747850
O211	O21	0.721100	0.253400	0.725890
O221	O22	0.663700	0.223200	0.671660
O231	O23	0.750800	0.033500	0.872430
O241	O24	0.740400	0.196000	0.843630
O251	O25	0.348500	0.382800	0.013120
O261	O26	0.329700	0.346500	0.067820
O271	O27	0.111400	0.040600	0.893450
O281	O28	0.292300	0.209700	0.905380
O291	O29	0.163600	0.664900	0.022360
O301	O30	0.120300	0.732000	0.073150
O311	O31	0.064600	0.597200	0.700000
O321	O32	0.012000	0.531300	0.752150
O331	O33	0.221100	0.253400	0.774110
O341	O34	0.163700	0.223200	0.828340
O351	O35	0.250800	0.033500	0.627570
O361	O36	0.240400	0.196000	0.656370
O371	O37	0.151500	0.617200	0.513120
O381	O38	0.170300	0.653500	0.567820
O391	O39	0.388600	0.959400	0.393450
O401	O40	0.207700	0.790300	0.405380
O411	O41	0.336400	0.335100	0.522360
O421	O42	0.379700	0.268000	0.573150
O431	O43	0.435400	0.402800	0.200000
O441	O44	0.488000	0.468700	0.252150
O451	O45	0.278900	0.746600	0.274110
O461	O46	0.336300	0.776800	0.328340
O471	O47	0.249200	0.966500	0.127570
O481	O48	0.259600	0.804000	0.156370
