data_YEMJAC_clean_PM
_symmetry_space_group_name_H-M	'P1'
_cell_length_a	10.313100
_cell_length_b	10.313100
_cell_length_c	14.495000
_cell_angle_alpha	90.000000
_cell_angle_beta	90.000000
_cell_angle_gamma	90.000000
_symmetry_Int_Tables_number 1

loop_
_symmetry_equiv_pos_as_xyz
'x,y,z'

loop_
_atom_site_label
_atom_site_type_symbol
_atom_site_fract_x
_atom_site_fract_y
_atom_site_fract_z
Dy11	Dy1	0.649110	0.649110	0.875000
Dy21	Dy2	0.350890	0.350890	0.375000
Dy31	Dy3	0.350890	0.649110	0.125000
Dy41	Dy4	0.649110	0.350890	0.625000
H11	H1	0.582700	0.060500	0.874700
H21	H2	0.417300	0.939500	0.374700
H31	H3	0.939500	0.582700	0.124700
H41	H4	0.060500	0.417300	0.624700
H51	H5	0.417300	0.060500	0.125300
H61	H6	0.582700	0.939500	0.625300
H71	H7	0.060500	0.582700	0.875300
H81	H8	0.939500	0.417300	0.375300
H91	H9	0.500000	0.398100	0.000000
H101	H10	0.500000	0.601900	0.500000
H111	H11	0.601900	0.500000	0.250000
H121	H12	0.398100	0.500000	0.750000
C11	C1	0.548000	0.105600	0.924400
C21	C2	0.544500	0.239000	0.922700
C31	C3	0.589700	0.316200	0.840000
C41	C4	0.452000	0.894400	0.424400
C51	C5	0.455500	0.761000	0.422700
C61	C6	0.410300	0.683800	0.340000
C71	C7	0.894400	0.548000	0.174400
C81	C8	0.761000	0.544500	0.172700
C91	C9	0.683800	0.589700	0.090000
C101	C10	0.105600	0.452000	0.674400
C111	C11	0.239000	0.455500	0.672700
C121	C12	0.316200	0.410300	0.590000
C131	C13	0.452000	0.105600	0.075600
C141	C14	0.455500	0.239000	0.077300
C151	C15	0.410300	0.316200	0.160000
C161	C16	0.548000	0.894400	0.575600
C171	C17	0.544500	0.761000	0.577300
C181	C18	0.589700	0.683800	0.660000
C191	C19	0.105600	0.548000	0.825600
C201	C20	0.239000	0.544500	0.827300
C211	C21	0.316200	0.589700	0.910000
C221	C22	0.894400	0.452000	0.325600
C231	C23	0.761000	0.455500	0.327300
C241	C24	0.683800	0.410300	0.410000
C251	C25	0.500000	0.892500	0.000000
C261	C26	0.500000	0.037700	0.000000
C271	C27	0.500000	0.307900	0.000000
C281	C28	0.500000	0.107500	0.500000
C291	C29	0.500000	0.962300	0.500000
C301	C30	0.500000	0.692100	0.500000
C311	C31	0.107500	0.500000	0.250000
C321	C32	0.962300	0.500000	0.250000
C331	C33	0.692100	0.500000	0.250000
C341	C34	0.892500	0.500000	0.750000
C351	C35	0.037700	0.500000	0.750000
C361	C36	0.307900	0.500000	0.750000
O11	O1	0.571300	0.835300	0.941100
O21	O2	0.597200	0.257200	0.765200
O31	O3	0.612400	0.431000	0.850300
O41	O4	0.428700	0.164700	0.441100
O51	O5	0.402800	0.742800	0.265200
O61	O6	0.387600	0.569000	0.350300
O71	O7	0.164700	0.571300	0.191100
O81	O8	0.742800	0.597200	0.015200
O91	O9	0.569000	0.612400	0.100300
O101	O10	0.835300	0.428700	0.691100
O111	O11	0.257200	0.402800	0.515200
O121	O12	0.431000	0.387600	0.600300
O131	O13	0.428700	0.835300	0.058900
O141	O14	0.402800	0.257200	0.234800
O151	O15	0.387600	0.431000	0.149700
O161	O16	0.571300	0.164700	0.558900
O171	O17	0.597200	0.742800	0.734800
O181	O18	0.612400	0.569000	0.649700
O191	O19	0.835300	0.571300	0.808900
O201	O20	0.257200	0.597200	0.984800
O211	O21	0.431000	0.612400	0.899700
O221	O22	0.164700	0.428700	0.308900
O231	O23	0.742800	0.402800	0.484800
O241	O24	0.569000	0.387600	0.399700
