data_YEMLUY_charged_PM
_symmetry_space_group_name_H-M	'P1'
_cell_length_a	9.270000
_cell_length_b	19.143000
_cell_length_c	19.143000
_cell_angle_alpha	120.000000
_cell_angle_beta	90.000000
_cell_angle_gamma	90.000000
_symmetry_Int_Tables_number 1

loop_
_symmetry_equiv_pos_as_xyz
'x,y,z'

loop_
_atom_site_label
_atom_site_type_symbol
_atom_site_fract_x
_atom_site_fract_y
_atom_site_fract_z
Co11	Co1	0.811620	0.507480	0.696630
Co21	Co2	0.811620	0.189150	0.492520
Co31	Co3	0.811620	0.303370	0.810850
Co41	Co4	0.688380	0.810850	0.303370
Co51	Co5	0.688380	0.696630	0.507480
Co61	Co6	0.688380	0.492520	0.189150
Co71	Co7	0.188380	0.492520	0.303370
Co81	Co8	0.188380	0.810850	0.507480
Co91	Co9	0.188380	0.696630	0.189150
Co101	Co10	0.311620	0.189150	0.696630
Co111	Co11	0.311620	0.303370	0.492520
Co121	Co12	0.311620	0.507480	0.810850
Co131	Co13	0.765920	0.333330	0.666660
Co141	Co14	0.734080	0.666670	0.333340
Co151	Co15	0.234080	0.666670	0.333340
Co161	Co16	0.265920	0.333330	0.666660
P11	P1	0.005240	0.367160	0.562030
P21	P2	0.005240	0.194870	0.632840
P31	P3	0.005240	0.437970	0.805130
P41	P4	0.494760	0.805130	0.437970
P51	P5	0.494760	0.562030	0.367160
P61	P6	0.494760	0.632840	0.194870
P71	P7	0.994760	0.632840	0.437970
P81	P8	0.994760	0.805130	0.367160
P91	P9	0.994760	0.562030	0.194870
P101	P10	0.505240	0.194870	0.562030
P111	P11	0.505240	0.437970	0.632840
P121	P12	0.505240	0.367160	0.805130
H11	H1	0.001200	0.284500	0.421600
H21	H2	0.949900	0.373700	0.446200
H31	H3	0.101000	0.353100	0.334500
H41	H4	0.179300	0.474400	0.533500
H51	H5	0.096900	0.469100	0.457600
H61	H6	0.064000	0.220200	0.308900
H71	H7	0.235000	0.206800	0.303300
H81	H8	0.153600	0.222500	0.238700
H91	H9	0.888500	0.758300	0.898400
H101	H10	0.716400	0.752700	0.899900
H111	H11	0.813100	0.720700	0.947400
H121	H12	0.001200	0.137100	0.715500
H131	H13	0.949900	0.072500	0.626300
H141	H14	0.101000	0.981400	0.646900
H151	H15	0.179300	0.059100	0.525600
H161	H16	0.096900	0.988500	0.530900
H171	H17	0.064000	0.088700	0.779800
H181	H18	0.235000	0.096500	0.793200
H191	H19	0.153600	0.016200	0.777500
H201	H20	0.888500	0.140100	0.241700
H211	H21	0.716400	0.147200	0.247300
H221	H22	0.813100	0.226700	0.279300
H231	H23	0.001200	0.578400	0.862900
H241	H24	0.949900	0.553800	0.927500
H251	H25	0.101000	0.665500	0.018600
H261	H26	0.179300	0.466500	0.940900
H271	H27	0.096900	0.542400	0.011500
H281	H28	0.064000	0.691100	0.911300
H291	H29	0.235000	0.696700	0.903500
H301	H30	0.153600	0.761300	0.983800
H311	H31	0.888500	0.101600	0.859900
H321	H32	0.716400	0.100100	0.852800
H331	H33	0.813100	0.052600	0.773300
H341	H34	0.498800	0.862900	0.578400
H351	H35	0.550100	0.927500	0.553800
H361	H36	0.399000	0.018600	0.665500
H371	H37	0.320700	0.940900	0.466500
H381	H38	0.403100	0.011500	0.542400
H391	H39	0.436000	0.911300	0.691100
H401	H40	0.265000	0.903500	0.696700
H411	H41	0.346400	0.983800	0.761300
H421	H42	0.611500	0.859900	0.101600
H431	H43	0.783600	0.852800	0.100100
H441	H44	0.686900	0.773300	0.052600
H451	H45	0.498800	0.421600	0.284500
H461	H46	0.550100	0.446200	0.373700
H471	H47	0.399000	0.334500	0.353100
H481	H48	0.320700	0.533500	0.474400
H491	H49	0.403100	0.457600	0.469100
H501	H50	0.436000	0.308900	0.220200
H511	H51	0.265000	0.303300	0.206800
H521	H52	0.346400	0.238700	0.222500
H531	H53	0.611500	0.898400	0.758300
H541	H54	0.783600	0.899900	0.752700
H551	H55	0.686900	0.947400	0.720700
H561	H56	0.498800	0.715500	0.137100
H571	H57	0.550100	0.626300	0.072500
H581	H58	0.399000	0.646900	0.981400
H591	H59	0.320700	0.525600	0.059100
H601	H60	0.403100	0.530900	0.988500
H611	H61	0.436000	0.779800	0.088700
H621	H62	0.265000	0.793200	0.096500
H631	H63	0.346400	0.777500	0.016200
H641	H64	0.611500	0.241700	0.140100
H651	H65	0.783600	0.247300	0.147200
H661	H66	0.686900	0.279300	0.226700
H671	H67	0.998800	0.715500	0.578400
H681	H68	0.050100	0.626300	0.553800
H691	H69	0.899000	0.646900	0.665500
H701	H70	0.820700	0.525600	0.466500
H711	H71	0.903100	0.530900	0.542400
H721	H72	0.936000	0.779800	0.691100
H731	H73	0.765000	0.793200	0.696700
H741	H74	0.846400	0.777500	0.761300
H751	H75	0.111500	0.241700	0.101600
H761	H76	0.283600	0.247300	0.100100
H771	H77	0.186900	0.279300	0.052600
H781	H78	0.998800	0.862900	0.284500
H791	H79	0.050100	0.927500	0.373700
H801	H80	0.899000	0.018600	0.353100
H811	H81	0.820700	0.940900	0.474400
H821	H82	0.903100	0.011500	0.469100
H831	H83	0.936000	0.911300	0.220200
H841	H84	0.765000	0.903500	0.206800
H851	H85	0.846400	0.983800	0.222500
H861	H86	0.111500	0.859900	0.758300
H871	H87	0.283600	0.852800	0.752700
H881	H88	0.186900	0.773300	0.720700
H891	H89	0.998800	0.421600	0.137100
H901	H90	0.050100	0.446200	0.072500
H911	H91	0.899000	0.334500	0.981400
H921	H92	0.820700	0.533500	0.059100
H931	H93	0.903100	0.457600	0.988500
H941	H94	0.936000	0.308900	0.088700
H951	H95	0.765000	0.303300	0.096500
H961	H96	0.846400	0.238700	0.016200
H971	H97	0.111500	0.898400	0.140100
H981	H98	0.283600	0.899900	0.147200
H991	H99	0.186900	0.947400	0.226700
H1001	H100	0.501200	0.137100	0.421600
H1011	H101	0.449900	0.072500	0.446200
H1021	H102	0.601000	0.981400	0.334500
H1031	H103	0.679300	0.059100	0.533500
H1041	H104	0.596900	0.988500	0.457600
H1051	H105	0.564000	0.088700	0.308900
H1061	H106	0.735000	0.096500	0.303300
H1071	H107	0.653600	0.016200	0.238700
H1081	H108	0.388500	0.140100	0.898400
H1091	H109	0.216400	0.147200	0.899900
H1101	H110	0.313100	0.226700	0.947400
H1111	H111	0.501200	0.578400	0.715500
H1121	H112	0.449900	0.553800	0.626300
H1131	H113	0.601000	0.665500	0.646900
H1141	H114	0.679300	0.466500	0.525600
H1151	H115	0.596900	0.542400	0.530900
H1161	H116	0.564000	0.691100	0.779800
H1171	H117	0.735000	0.696700	0.793200
H1181	H118	0.653600	0.761300	0.777500
H1191	H119	0.388500	0.101600	0.241700
H1201	H120	0.216400	0.100100	0.247300
H1211	H121	0.313100	0.052600	0.279300
H1221	H122	0.501200	0.284500	0.862900
H1231	H123	0.449900	0.373700	0.927500
H1241	H124	0.601000	0.353100	0.018600
H1251	H125	0.679300	0.474400	0.940900
H1261	H126	0.596900	0.469100	0.011500
H1271	H127	0.564000	0.220200	0.911300
H1281	H128	0.735000	0.206800	0.903500
H1291	H129	0.653600	0.222500	0.983800
H1301	H130	0.388500	0.758300	0.859900
H1311	H131	0.216400	0.752700	0.852800
H1321	H132	0.313100	0.720700	0.773300
C11	C1	0.022400	0.342500	0.457300
C21	C2	0.178200	0.326200	0.349100
C31	C3	0.181200	0.448900	0.474000
C41	C4	0.156000	0.235900	0.295200
C51	C5	0.812400	0.643000	0.824500
C61	C6	0.807000	0.726100	0.899200
C71	C7	0.022400	0.114800	0.657500
C81	C8	0.178200	0.022900	0.673800
C91	C9	0.181200	0.025100	0.551100
C101	C10	0.156000	0.059300	0.764100
C111	C11	0.812400	0.181500	0.357000
C121	C12	0.807000	0.173100	0.273900
C131	C13	0.022400	0.542700	0.885200
C141	C14	0.178200	0.650900	0.977100
C151	C15	0.181200	0.526000	0.974900
C161	C16	0.156000	0.704800	0.940700
C171	C17	0.812400	0.175500	0.818500
C181	C18	0.807000	0.100800	0.826900
C191	C19	0.477600	0.885200	0.542700
C201	C20	0.321800	0.977100	0.650900
C211	C21	0.318800	0.974900	0.526000
C221	C22	0.344000	0.940700	0.704800
C231	C23	0.687600	0.818500	0.175500
C241	C24	0.693000	0.826900	0.100800
C251	C25	0.477600	0.457300	0.342500
C261	C26	0.321800	0.349100	0.326200
C271	C27	0.318800	0.474000	0.448900
C281	C28	0.344000	0.295200	0.235900
C291	C29	0.687600	0.824500	0.643000
C301	C30	0.693000	0.899200	0.726100
C311	C31	0.477600	0.657500	0.114800
C321	C32	0.321800	0.673800	0.022900
C331	C33	0.318800	0.551100	0.025100
C341	C34	0.344000	0.764100	0.059300
C351	C35	0.687600	0.357000	0.181500
C361	C36	0.693000	0.273900	0.173100
C371	C37	0.977600	0.657500	0.542700
C381	C38	0.821800	0.673800	0.650900
C391	C39	0.818800	0.551100	0.526000
C401	C40	0.844000	0.764100	0.704800
C411	C41	0.187600	0.357000	0.175500
C421	C42	0.193000	0.273900	0.100800
C431	C43	0.977600	0.885200	0.342500
C441	C44	0.821800	0.977100	0.326200
C451	C45	0.818800	0.974900	0.448900
C461	C46	0.844000	0.940700	0.235900
C471	C47	0.187600	0.818500	0.643000
C481	C48	0.193000	0.826900	0.726100
C491	C49	0.977600	0.457300	0.114800
C501	C50	0.821800	0.349100	0.022900
C511	C51	0.818800	0.474000	0.025100
C521	C52	0.844000	0.295200	0.059300
C531	C53	0.187600	0.824500	0.181500
C541	C54	0.193000	0.899200	0.173100
C551	C55	0.522400	0.114800	0.457300
C561	C56	0.678200	0.022900	0.349100
C571	C57	0.681200	0.025100	0.474000
C581	C58	0.656000	0.059300	0.295200
C591	C59	0.312400	0.181500	0.824500
C601	C60	0.307000	0.173100	0.899200
C611	C61	0.522400	0.542700	0.657500
C621	C62	0.678200	0.650900	0.673800
C631	C63	0.681200	0.526000	0.551100
C641	C64	0.656000	0.704800	0.764100
C651	C65	0.312400	0.175500	0.357000
C661	C66	0.307000	0.100800	0.273900
C671	C67	0.522400	0.342500	0.885200
C681	C68	0.678200	0.326200	0.977100
C691	C69	0.681200	0.448900	0.974900
C701	C70	0.656000	0.235900	0.940700
C711	C71	0.312400	0.643000	0.818500
C721	C72	0.307000	0.726100	0.826900
N11	N1	0.168400	0.360300	0.437900
N21	N2	0.168400	0.077600	0.639700
N31	N3	0.168400	0.562100	0.922400
N41	N4	0.331600	0.922400	0.562100
N51	N5	0.331600	0.437900	0.360300
N61	N6	0.331600	0.639700	0.077600
N71	N7	0.831600	0.639700	0.562100
N81	N8	0.831600	0.922400	0.360300
N91	N9	0.831600	0.437900	0.077600
N101	N10	0.668400	0.077600	0.437900
N111	N11	0.668400	0.562100	0.639700
N121	N12	0.668400	0.360300	0.922400
O11	O1	0.965900	0.455940	0.612670
O21	O2	0.891100	0.311680	0.565520
O31	O3	0.157000	0.348590	0.580860
O41	O4	0.728200	0.586800	0.806300
O51	O5	0.922700	0.625400	0.775200
O61	O6	0.965900	0.156730	0.544060
O71	O7	0.891100	0.253840	0.688320
O81	O8	0.157000	0.232270	0.651410
O91	O9	0.728200	0.219500	0.413200
O101	O10	0.922700	0.149800	0.374600
O111	O11	0.965900	0.387330	0.843270
O121	O12	0.891100	0.434480	0.746160
O131	O13	0.157000	0.419140	0.767730
O141	O14	0.728200	0.193700	0.780500
O151	O15	0.922700	0.224800	0.850200
O161	O16	0.534100	0.843270	0.387330
O171	O17	0.608900	0.746160	0.434480
O181	O18	0.343000	0.767730	0.419140
O191	O19	0.771800	0.780500	0.193700
O201	O20	0.577300	0.850200	0.224800
O211	O21	0.534100	0.612670	0.455940
O221	O22	0.608900	0.565520	0.311680
O231	O23	0.343000	0.580860	0.348590
O241	O24	0.771800	0.806300	0.586800
O251	O25	0.577300	0.775200	0.625400
O261	O26	0.534100	0.544060	0.156730
O271	O27	0.608900	0.688320	0.253840
O281	O28	0.343000	0.651410	0.232270
O291	O29	0.771800	0.413200	0.219500
O301	O30	0.577300	0.374600	0.149800
O311	O31	0.034100	0.544060	0.387330
O321	O32	0.108900	0.688320	0.434480
O331	O33	0.843000	0.651410	0.419140
O341	O34	0.271800	0.413200	0.193700
O351	O35	0.077300	0.374600	0.224800
O361	O36	0.034100	0.843270	0.455940
O371	O37	0.108900	0.746160	0.311680
O381	O38	0.843000	0.767730	0.348590
O391	O39	0.271800	0.780500	0.586800
O401	O40	0.077300	0.850200	0.625400
O411	O41	0.034100	0.612670	0.156730
O421	O42	0.108900	0.565520	0.253840
O431	O43	0.843000	0.580860	0.232270
O441	O44	0.271800	0.806300	0.219500
O451	O45	0.077300	0.775200	0.149800
O461	O46	0.465900	0.156730	0.612670
O471	O47	0.391100	0.253840	0.565520
O481	O48	0.657000	0.232270	0.580860
O491	O49	0.228200	0.219500	0.806300
O501	O50	0.422700	0.149800	0.775200
O511	O51	0.465900	0.387330	0.544060
O521	O52	0.391100	0.434480	0.688320
O531	O53	0.657000	0.419140	0.651410
O541	O54	0.228200	0.193700	0.413200
O551	O55	0.422700	0.224800	0.374600
O561	O56	0.465900	0.455940	0.843270
O571	O57	0.391100	0.311680	0.746160
O581	O58	0.657000	0.348590	0.767730
O591	O59	0.228200	0.586800	0.780500
O601	O60	0.422700	0.625400	0.850200
