data_YEMMAF_clean_PM
_symmetry_space_group_name_H-M	'P1'
_cell_length_a	27.948600
_cell_length_b	27.948600
_cell_length_c	6.230200
_cell_angle_alpha	90.000000
_cell_angle_beta	90.000000
_cell_angle_gamma	120.000000
_symmetry_Int_Tables_number 1

loop_
_symmetry_equiv_pos_as_xyz
'x,y,z'

loop_
_atom_site_label
_atom_site_type_symbol
_atom_site_fract_x
_atom_site_fract_y
_atom_site_fract_z
Ni11	Ni1	0.637860	0.028400	0.051700
P11	P1	0.613550	0.039590	0.572900
O11	O1	0.614100	0.094700	0.518500
O21	O2	0.630600	0.010400	0.369200
O31	O3	0.661100	0.047200	0.728800
N11	N1	0.556700	0.006200	0.970600
C11	C1	0.543700	0.056800	0.986000
C21	C2	0.518000	0.961300	0.084000
C31	C3	0.546800	0.988500	0.730000
Ni21	Ni2	0.304530	0.361730	0.385030
P21	P2	0.280220	0.372920	0.906230
O41	O4	0.280770	0.428030	0.851830
O51	O5	0.297270	0.343730	0.702530
O61	O6	0.327770	0.380530	0.062130
N21	N2	0.223370	0.339530	0.303930
C41	C4	0.210370	0.390130	0.319330
C51	C5	0.184670	0.294630	0.417330
C61	C6	0.213470	0.321830	0.063330
Ni31	Ni3	0.971190	0.695070	0.718370
P31	P3	0.946880	0.706260	0.239570
O71	O7	0.947430	0.761370	0.185170
O81	O8	0.963930	0.677070	0.035870
O91	O9	0.994430	0.713870	0.395470
N31	N3	0.890030	0.672870	0.637270
C71	C7	0.877030	0.723470	0.652670
C81	C8	0.851330	0.627970	0.750670
C91	C9	0.880130	0.655170	0.396670
Ni41	Ni4	0.971600	0.609460	0.051700
P41	P4	0.960410	0.573960	0.572900
O101	O10	0.905300	0.519400	0.518500
O111	O11	0.989600	0.620200	0.369200
O121	O12	0.952800	0.613900	0.728800
N41	N4	0.993800	0.550500	0.970600
C101	C10	0.943200	0.486900	0.986000
C111	C11	0.038700	0.556700	0.084000
C121	C12	0.011500	0.558300	0.730000
Ni51	Ni5	0.638270	0.942790	0.385030
P51	P5	0.627080	0.907290	0.906230
O131	O13	0.571970	0.852730	0.851830
O141	O14	0.656270	0.953530	0.702530
O151	O15	0.619470	0.947230	0.062130
N51	N5	0.660470	0.883830	0.303930
C131	C13	0.609870	0.820230	0.319330
C141	C14	0.705370	0.890030	0.417330
C151	C15	0.678170	0.891630	0.063330
Ni61	Ni6	0.304930	0.276130	0.718370
P61	P6	0.293740	0.240630	0.239570
O161	O16	0.238630	0.186070	0.185170
O171	O17	0.322930	0.286870	0.035870
O181	O18	0.286130	0.280570	0.395470
N61	N6	0.327130	0.217170	0.637270
C161	C16	0.276530	0.153570	0.652670
C171	C17	0.372030	0.223370	0.750670
C181	C18	0.344830	0.224970	0.396670
Ni71	Ni7	0.390540	0.362140	0.051700
P71	P7	0.426040	0.386450	0.572900
O191	O19	0.480600	0.385900	0.518500
O201	O20	0.379800	0.369400	0.369200
O211	O21	0.386100	0.338900	0.728800
N71	N7	0.449500	0.443300	0.970600
C191	C19	0.513100	0.456300	0.986000
C201	C20	0.443300	0.482000	0.084000
C211	C21	0.441700	0.453200	0.730000
Ni81	Ni8	0.057210	0.695470	0.385030
P81	P8	0.092710	0.719780	0.906230
O221	O22	0.147270	0.719230	0.851830
O231	O23	0.046470	0.702730	0.702530
O241	O24	0.052770	0.672230	0.062130
N81	N8	0.116170	0.776630	0.303930
C221	C22	0.179770	0.789630	0.319330
C231	C23	0.109970	0.815330	0.417330
C241	C24	0.108370	0.786530	0.063330
Ni91	Ni9	0.723870	0.028810	0.718370
P91	P9	0.759370	0.053120	0.239570
O251	O25	0.813930	0.052570	0.185170
O261	O26	0.713130	0.036070	0.035870
O271	O27	0.719430	0.005570	0.395470
N91	N9	0.782830	0.109970	0.637270
C251	C25	0.846430	0.122970	0.652670
C261	C26	0.776630	0.148670	0.750670
C271	C27	0.775030	0.119870	0.396670
Ni101	Ni10	0.362140	0.971600	0.948300
P101	P10	0.386450	0.960410	0.427100
O281	O28	0.385900	0.905300	0.481500
O291	O29	0.369400	0.989600	0.630800
O301	O30	0.338900	0.952800	0.271200
N101	N10	0.443300	0.993800	0.029400
C281	C28	0.456300	0.943200	0.014000
C291	C29	0.482000	0.038700	0.916000
C301	C30	0.453200	0.011500	0.270000
Ni111	Ni11	0.028810	0.304930	0.281630
P111	P11	0.053120	0.293740	0.760430
O311	O31	0.052570	0.238630	0.814830
O321	O32	0.036070	0.322930	0.964130
O331	O33	0.005570	0.286130	0.604530
N111	N11	0.109970	0.327130	0.362730
C311	C31	0.122970	0.276530	0.347330
C321	C32	0.148670	0.372030	0.249330
C331	C33	0.119870	0.344830	0.603330
Ni121	Ni12	0.695470	0.638270	0.614970
P121	P12	0.719780	0.627080	0.093770
O341	O34	0.719230	0.571970	0.148170
O351	O35	0.702730	0.656270	0.297470
O361	O36	0.672230	0.619470	0.937870
N121	N12	0.776630	0.660470	0.696070
C341	C34	0.789630	0.609870	0.680670
C351	C35	0.815330	0.705370	0.582670
C361	C36	0.786530	0.678170	0.936670
Ni131	Ni13	0.028400	0.390540	0.948300
P131	P13	0.039590	0.426040	0.427100
O371	O37	0.094700	0.480600	0.481500
O381	O38	0.010400	0.379800	0.630800
O391	O39	0.047200	0.386100	0.271200
N131	N13	0.006200	0.449500	0.029400
C371	C37	0.056800	0.513100	0.014000
C381	C38	0.961300	0.443300	0.916000
C391	C39	0.988500	0.441700	0.270000
Ni141	Ni14	0.695070	0.723870	0.281630
P141	P14	0.706260	0.759370	0.760430
O401	O40	0.761370	0.813930	0.814830
O411	O41	0.677070	0.713130	0.964130
O421	O42	0.713870	0.719430	0.604530
N141	N14	0.672870	0.782830	0.362730
C401	C40	0.723470	0.846430	0.347330
C411	C41	0.627970	0.776630	0.249330
C421	C42	0.655170	0.775030	0.603330
Ni151	Ni15	0.361730	0.057210	0.614970
P151	P15	0.372920	0.092710	0.093770
O431	O43	0.428030	0.147270	0.148170
O441	O44	0.343730	0.046470	0.297470
O451	O45	0.380530	0.052770	0.937870
N151	N15	0.339530	0.116170	0.696070
C431	C43	0.390130	0.179770	0.680670
C441	C44	0.294630	0.109970	0.582670
C451	C45	0.321830	0.108370	0.936670
Ni161	Ni16	0.609460	0.637860	0.948300
P161	P16	0.573960	0.613550	0.427100
O461	O46	0.519400	0.614100	0.481500
O471	O47	0.620200	0.630600	0.630800
O481	O48	0.613900	0.661100	0.271200
N161	N16	0.550500	0.556700	0.029400
C461	C46	0.486900	0.543700	0.014000
C471	C47	0.556700	0.518000	0.916000
C481	C48	0.558300	0.546800	0.270000
Ni171	Ni17	0.276130	0.971190	0.281630
P171	P17	0.240630	0.946880	0.760430
O491	O49	0.186070	0.947430	0.814830
O501	O50	0.286870	0.963930	0.964130
O511	O51	0.280570	0.994430	0.604530
N171	N17	0.217170	0.890030	0.362730
C491	C49	0.153570	0.877030	0.347330
C501	C50	0.223370	0.851330	0.249330
C511	C51	0.224970	0.880130	0.603330
Ni181	Ni18	0.942790	0.304530	0.614970
P181	P18	0.907290	0.280220	0.093770
O521	O52	0.852730	0.280770	0.148170
O531	O53	0.953530	0.297270	0.297470
O541	O54	0.947230	0.327770	0.937870
N181	N18	0.883830	0.223370	0.696070
C521	C52	0.820230	0.210370	0.680670
C531	C53	0.890030	0.184670	0.582670
C541	C54	0.891630	0.213470	0.936670
