data_YEPCUS_clean_PM
_symmetry_space_group_name_H-M	'P1'
_cell_length_a	15.628900
_cell_length_b	15.628900
_cell_length_c	15.628900
_cell_angle_alpha	90.000000
_cell_angle_beta	90.000000
_cell_angle_gamma	90.000000
_symmetry_Int_Tables_number 1

loop_
_symmetry_equiv_pos_as_xyz
'x,y,z'

loop_
_atom_site_label
_atom_site_type_symbol
_atom_site_fract_x
_atom_site_fract_y
_atom_site_fract_z
N11	N1	0.500200	0.699600	0.879300
N21	N2	0.429710	0.673220	0.922300
C11	C1	0.471900	0.752000	0.821200
H11	H1	0.506900	0.779400	0.781600
C21	C2	0.383100	0.762700	0.824700
H21	H2	0.348800	0.796800	0.790100
C31	C3	0.358600	0.711100	0.891200
H31	H3	0.303100	0.703600	0.911300
C41	C4	0.435700	0.615200	0.992300
C51	C5	0.501800	0.623500	0.050100
H41	H4	0.537000	0.667800	0.039000
N31	N3	0.999800	0.300400	0.379300
N41	N4	0.070290	0.326780	0.422300
C61	C6	0.028100	0.248000	0.321200
H51	H5	0.993100	0.220600	0.281600
C71	C7	0.116900	0.237300	0.324700
H61	H6	0.151200	0.203200	0.290100
C81	C8	0.141400	0.288900	0.391200
H71	H7	0.196900	0.296400	0.411300
C91	C9	0.064300	0.384800	0.492300
C101	C10	0.998200	0.376500	0.550100
H81	H8	0.963000	0.332200	0.539000
N51	N5	0.499800	0.199600	0.620700
N61	N6	0.570290	0.173220	0.577700
C111	C11	0.528100	0.252000	0.678800
H91	H9	0.493100	0.279400	0.718400
C121	C12	0.616900	0.262700	0.675300
H101	H10	0.651200	0.296800	0.709900
C131	C13	0.641400	0.211100	0.608800
H111	H11	0.696900	0.203600	0.588700
C141	C14	0.564300	0.115200	0.507700
C151	C15	0.498200	0.123500	0.449900
H121	H12	0.463000	0.167800	0.461000
N71	N7	0.000200	0.800400	0.120700
N81	N8	0.929710	0.826780	0.077700
C161	C16	0.971900	0.748000	0.178800
H131	H13	0.006900	0.720600	0.218400
C171	C17	0.883100	0.737300	0.175300
H141	H14	0.848800	0.703200	0.209900
C181	C18	0.858600	0.788900	0.108800
H151	H15	0.803100	0.796400	0.088700
C191	C19	0.935700	0.884800	0.007700
C201	C20	0.001800	0.876500	0.949900
H161	H16	0.037000	0.832200	0.961000
N91	N9	0.879300	0.500200	0.699600
N101	N10	0.922300	0.429710	0.673220
C211	C21	0.821200	0.471900	0.752000
H171	H17	0.781600	0.506900	0.779400
C221	C22	0.824700	0.383100	0.762700
H181	H18	0.790100	0.348800	0.796800
C231	C23	0.891200	0.358600	0.711100
H191	H19	0.911300	0.303100	0.703600
C241	C24	0.992300	0.435700	0.615200
C251	C25	0.050100	0.501800	0.623500
H201	H20	0.039000	0.537000	0.667800
N111	N11	0.379300	0.999800	0.300400
N121	N12	0.422300	0.070290	0.326780
C261	C26	0.321200	0.028100	0.248000
H211	H21	0.281600	0.993100	0.220600
C271	C27	0.324700	0.116900	0.237300
H221	H22	0.290100	0.151200	0.203200
C281	C28	0.391200	0.141400	0.288900
H231	H23	0.411300	0.196900	0.296400
C291	C29	0.492300	0.064300	0.384800
C301	C30	0.550100	0.998200	0.376500
H241	H24	0.539000	0.963000	0.332200
N131	N13	0.620700	0.499800	0.199600
N141	N14	0.577700	0.570290	0.173220
C311	C31	0.678800	0.528100	0.252000
H251	H25	0.718400	0.493100	0.279400
C321	C32	0.675300	0.616900	0.262700
H261	H26	0.709900	0.651200	0.296800
C331	C33	0.608800	0.641400	0.211100
H271	H27	0.588700	0.696900	0.203600
C341	C34	0.507700	0.564300	0.115200
C351	C35	0.449900	0.498200	0.123500
H281	H28	0.461000	0.463000	0.167800
N151	N15	0.120700	0.000200	0.800400
N161	N16	0.077700	0.929710	0.826780
C361	C36	0.178800	0.971900	0.748000
H291	H29	0.218400	0.006900	0.720600
C371	C37	0.175300	0.883100	0.737300
H301	H30	0.209900	0.848800	0.703200
C381	C38	0.108800	0.858600	0.788900
H311	H31	0.088700	0.803100	0.796400
C391	C39	0.007700	0.935700	0.884800
C401	C40	0.949900	0.001800	0.876500
H321	H32	0.961000	0.037000	0.832200
N171	N17	0.699600	0.879300	0.500200
N181	N18	0.673220	0.922300	0.429710
C411	C41	0.752000	0.821200	0.471900
H331	H33	0.779400	0.781600	0.506900
C421	C42	0.762700	0.824700	0.383100
H341	H34	0.796800	0.790100	0.348800
C431	C43	0.711100	0.891200	0.358600
H351	H35	0.703600	0.911300	0.303100
C441	C44	0.615200	0.992300	0.435700
C451	C45	0.623500	0.050100	0.501800
H361	H36	0.667800	0.039000	0.537000
N191	N19	0.300400	0.379300	0.999800
N201	N20	0.326780	0.422300	0.070290
C461	C46	0.248000	0.321200	0.028100
H371	H37	0.220600	0.281600	0.993100
C471	C47	0.237300	0.324700	0.116900
H381	H38	0.203200	0.290100	0.151200
C481	C48	0.288900	0.391200	0.141400
H391	H39	0.296400	0.411300	0.196900
C491	C49	0.384800	0.492300	0.064300
C501	C50	0.376500	0.550100	0.998200
H401	H40	0.332200	0.539000	0.963000
N211	N21	0.199600	0.620700	0.499800
N221	N22	0.173220	0.577700	0.570290
C511	C51	0.252000	0.678800	0.528100
H411	H41	0.279400	0.718400	0.493100
C521	C52	0.262700	0.675300	0.616900
H421	H42	0.296800	0.709900	0.651200
C531	C53	0.211100	0.608800	0.641400
H431	H43	0.203600	0.588700	0.696900
C541	C54	0.115200	0.507700	0.564300
C551	C55	0.123500	0.449900	0.498200
H441	H44	0.167800	0.461000	0.463000
N231	N23	0.800400	0.120700	0.000200
N241	N24	0.826780	0.077700	0.929710
C561	C56	0.748000	0.178800	0.971900
H451	H45	0.720600	0.218400	0.006900
C571	C57	0.737300	0.175300	0.883100
H461	H46	0.703200	0.209900	0.848800
C581	C58	0.788900	0.108800	0.858600
H471	H47	0.796400	0.088700	0.803100
C591	C59	0.884800	0.007700	0.935700
C601	C60	0.876500	0.949900	0.001800
H481	H48	0.832200	0.961000	0.037000
N251	N25	0.449600	0.750200	0.370700
N261	N26	0.423220	0.679710	0.327700
C611	C61	0.502000	0.721900	0.428800
H491	H49	0.529400	0.756900	0.468400
C621	C62	0.512700	0.633100	0.425300
H501	H50	0.546800	0.598800	0.459900
C631	C63	0.461100	0.608600	0.358800
H511	H51	0.453600	0.553100	0.338700
C641	C64	0.365200	0.685700	0.257700
C651	C65	0.373500	0.751800	0.199900
H521	H52	0.417800	0.787000	0.211000
N271	N27	0.050400	0.249800	0.870700
N281	N28	0.076780	0.320290	0.827700
C661	C66	0.998000	0.278100	0.928800
H531	H53	0.970600	0.243100	0.968400
C671	C67	0.987300	0.366900	0.925300
H541	H54	0.953200	0.401200	0.959900
C681	C68	0.038900	0.391400	0.858800
H551	H55	0.046400	0.446900	0.838700
C691	C69	0.134800	0.314300	0.757700
C701	C70	0.126500	0.248200	0.699900
H561	H56	0.082200	0.213000	0.711000
N291	N29	0.949600	0.749800	0.629300
N301	N30	0.923220	0.820290	0.672300
C711	C71	0.002000	0.778100	0.571200
H571	H57	0.029400	0.743100	0.531600
C721	C72	0.012700	0.866900	0.574700
H581	H58	0.046800	0.901200	0.540100
C731	C73	0.961100	0.891400	0.641200
H591	H59	0.953600	0.946900	0.661300
C741	C74	0.865200	0.814300	0.742300
C751	C75	0.873500	0.748200	0.800100
H601	H60	0.917800	0.713000	0.789000
N311	N31	0.550400	0.250200	0.129300
N321	N32	0.576780	0.179710	0.172300
C761	C76	0.498000	0.221900	0.071200
H611	H61	0.470600	0.256900	0.031600
C771	C77	0.487300	0.133100	0.074700
H621	H62	0.453200	0.098800	0.040100
C781	C78	0.538900	0.108600	0.141200
H631	H63	0.546400	0.053100	0.161300
C791	C79	0.634800	0.185700	0.242300
C801	C80	0.626500	0.251800	0.300100
H641	H64	0.582200	0.287000	0.289000
N331	N33	0.250200	0.129300	0.550400
N341	N34	0.179710	0.172300	0.576780
C811	C81	0.221900	0.071200	0.498000
H651	H65	0.256900	0.031600	0.470600
C821	C82	0.133100	0.074700	0.487300
H661	H66	0.098800	0.040100	0.453200
C831	C83	0.108600	0.141200	0.538900
H671	H67	0.053100	0.161300	0.546400
C841	C84	0.185700	0.242300	0.634800
C851	C85	0.251800	0.300100	0.626500
H681	H68	0.287000	0.289000	0.582200
N351	N35	0.749800	0.629300	0.949600
N361	N36	0.820290	0.672300	0.923220
C861	C86	0.778100	0.571200	0.002000
H691	H69	0.743100	0.531600	0.029400
C871	C87	0.866900	0.574700	0.012700
H701	H70	0.901200	0.540100	0.046800
C881	C88	0.891400	0.641200	0.961100
H711	H71	0.946900	0.661300	0.953600
C891	C89	0.814300	0.742300	0.865200
C901	C90	0.748200	0.800100	0.873500
H721	H72	0.713000	0.789000	0.917800
N371	N37	0.249800	0.870700	0.050400
N381	N38	0.320290	0.827700	0.076780
C911	C91	0.278100	0.928800	0.998000
H731	H73	0.243100	0.968400	0.970600
C921	C92	0.366900	0.925300	0.987300
H741	H74	0.401200	0.959900	0.953200
C931	C93	0.391400	0.858800	0.038900
H751	H75	0.446900	0.838700	0.046400
C941	C94	0.314300	0.757700	0.134800
C951	C95	0.248200	0.699900	0.126500
H761	H76	0.213000	0.711000	0.082200
N391	N39	0.750200	0.370700	0.449600
N401	N40	0.679710	0.327700	0.423220
C961	C96	0.721900	0.428800	0.502000
H771	H77	0.756900	0.468400	0.529400
C971	C97	0.633100	0.425300	0.512700
H781	H78	0.598800	0.459900	0.546800
C981	C98	0.608600	0.358800	0.461100
H791	H79	0.553100	0.338700	0.453600
C991	C99	0.685700	0.257700	0.365200
C1001	C100	0.751800	0.199900	0.373500
H801	H80	0.787000	0.211000	0.417800
N411	N41	0.629300	0.949600	0.749800
N421	N42	0.672300	0.923220	0.820290
C1011	C101	0.571200	0.002000	0.778100
H811	H81	0.531600	0.029400	0.743100
C1021	C102	0.574700	0.012700	0.866900
H821	H82	0.540100	0.046800	0.901200
C1031	C103	0.641200	0.961100	0.891400
H831	H83	0.661300	0.953600	0.946900
C1041	C104	0.742300	0.865200	0.814300
C1051	C105	0.800100	0.873500	0.748200
H841	H84	0.789000	0.917800	0.713000
N431	N43	0.129300	0.550400	0.250200
N441	N44	0.172300	0.576780	0.179710
C1061	C106	0.071200	0.498000	0.221900
H851	H85	0.031600	0.470600	0.256900
C1071	C107	0.074700	0.487300	0.133100
H861	H86	0.040100	0.453200	0.098800
C1081	C108	0.141200	0.538900	0.108600
H871	H87	0.161300	0.546400	0.053100
C1091	C109	0.242300	0.634800	0.185700
C1101	C110	0.300100	0.626500	0.251800
H881	H88	0.289000	0.582200	0.287000
N451	N45	0.370700	0.449600	0.750200
N461	N46	0.327700	0.423220	0.679710
C1111	C111	0.428800	0.502000	0.721900
H891	H89	0.468400	0.529400	0.756900
C1121	C112	0.425300	0.512700	0.633100
H901	H90	0.459900	0.546800	0.598800
C1131	C113	0.358800	0.461100	0.608600
H911	H91	0.338700	0.453600	0.553100
C1141	C114	0.257700	0.365200	0.685700
C1151	C115	0.199900	0.373500	0.751800
H921	H92	0.211000	0.417800	0.787000
N471	N47	0.870700	0.050400	0.249800
N481	N48	0.827700	0.076780	0.320290
C1161	C116	0.928800	0.998000	0.278100
H931	H93	0.968400	0.970600	0.243100
C1171	C117	0.925300	0.987300	0.366900
H941	H94	0.959900	0.953200	0.401200
C1181	C118	0.858800	0.038900	0.391400
H951	H95	0.838700	0.046400	0.446900
C1191	C119	0.757700	0.134800	0.314300
C1201	C120	0.699900	0.126500	0.248200
H961	H96	0.711000	0.082200	0.213000
Ag11	Ag1	0.625000	0.641280	0.891280
Ag21	Ag2	0.875000	0.358720	0.391280
Ag31	Ag3	0.375000	0.141280	0.608720
Ag41	Ag4	0.125000	0.858720	0.108720
Ag51	Ag5	0.891280	0.625000	0.641280
Ag61	Ag6	0.391280	0.875000	0.358720
Ag71	Ag7	0.608720	0.375000	0.141280
Ag81	Ag8	0.108720	0.125000	0.858720
Ag91	Ag9	0.641280	0.891280	0.625000
Ag101	Ag10	0.358720	0.391280	0.875000
Ag111	Ag11	0.141280	0.608720	0.375000
Ag121	Ag12	0.858720	0.108720	0.125000
