data_YEZKOF_clean_PM
_symmetry_space_group_name_H-M	'P1'
_cell_length_a	13.682200
_cell_length_b	13.682200
_cell_length_c	13.682200
_cell_angle_alpha	102.353000
_cell_angle_beta	102.353000
_cell_angle_gamma	102.353000
_symmetry_Int_Tables_number 1

loop_
_symmetry_equiv_pos_as_xyz
'x,y,z'

loop_
_atom_site_label
_atom_site_type_symbol
_atom_site_fract_x
_atom_site_fract_y
_atom_site_fract_z
Co11	Co1	0.882920	0.500000	0.117080
Co21	Co2	0.117080	0.882920	0.500000
Co31	Co3	0.500000	0.117080	0.882920
Mo11	Mo1	0.792790	0.207210	0.000000
Mo21	Mo2	0.000000	0.792790	0.207210
Mo31	Mo3	0.207210	0.000000	0.792790
H11	H1	0.881600	0.336600	0.248300
H21	H2	0.865600	0.317500	0.407300
H31	H3	0.860400	0.616500	0.487000
H41	H4	0.879300	0.628100	0.327200
H51	H5	0.857500	0.389200	0.581900
H61	H6	0.851200	0.592600	0.636200
H71	H7	0.823500	0.655700	0.806300
H81	H8	0.835200	0.644300	0.973700
H91	H9	0.901000	0.378300	0.910800
H101	H10	0.889600	0.380400	0.741900
H111	H11	0.248300	0.881600	0.336600
H121	H12	0.407300	0.865600	0.317500
H131	H13	0.487000	0.860400	0.616500
H141	H14	0.327200	0.879300	0.628100
H151	H15	0.581900	0.857500	0.389200
H161	H16	0.636200	0.851200	0.592600
H171	H17	0.806300	0.823500	0.655700
H181	H18	0.973700	0.835200	0.644300
H191	H19	0.910800	0.901000	0.378300
H201	H20	0.741900	0.889600	0.380400
H211	H21	0.336600	0.248300	0.881600
H221	H22	0.317500	0.407300	0.865600
H231	H23	0.616500	0.487000	0.860400
H241	H24	0.628100	0.327200	0.879300
H251	H25	0.389200	0.581900	0.857500
H261	H26	0.592600	0.636200	0.851200
H271	H27	0.655700	0.806300	0.823500
H281	H28	0.644300	0.973700	0.835200
H291	H29	0.378300	0.910800	0.901000
H301	H30	0.380400	0.741900	0.889600
H311	H31	0.663400	0.118400	0.751700
H321	H32	0.682500	0.134400	0.592700
H331	H33	0.383500	0.139600	0.513000
H341	H34	0.371900	0.120700	0.672800
H351	H35	0.610800	0.142500	0.418100
H361	H36	0.407400	0.148800	0.363800
H371	H37	0.344300	0.176500	0.193700
H381	H38	0.355700	0.164800	0.026300
H391	H39	0.621700	0.099000	0.089200
H401	H40	0.619600	0.110400	0.258100
H411	H41	0.118400	0.751700	0.663400
H421	H42	0.134400	0.592700	0.682500
H431	H43	0.139600	0.513000	0.383500
H441	H44	0.120700	0.672800	0.371900
H451	H45	0.142500	0.418100	0.610800
H461	H46	0.148800	0.363800	0.407400
H471	H47	0.176500	0.193700	0.344300
H481	H48	0.164800	0.026300	0.355700
H491	H49	0.099000	0.089200	0.621700
H501	H50	0.110400	0.258100	0.619600
H511	H51	0.751700	0.663400	0.118400
H521	H52	0.592700	0.682500	0.134400
H531	H53	0.513000	0.383500	0.139600
H541	H54	0.672800	0.371900	0.120700
H551	H55	0.418100	0.610800	0.142500
H561	H56	0.363800	0.407400	0.148800
H571	H57	0.193700	0.344300	0.176500
H581	H58	0.026300	0.355700	0.164800
H591	H59	0.089200	0.621700	0.099000
H601	H60	0.258100	0.619600	0.110400
C11	C1	0.878530	0.394370	0.297820
C21	C2	0.868760	0.382140	0.392900
C31	C3	0.863690	0.466120	0.467530
C41	C4	0.866090	0.558370	0.439840
C51	C5	0.876770	0.564640	0.343810
C61	C6	0.858600	0.454650	0.570550
C71	C7	0.855300	0.528600	0.649000
C81	C8	0.857500	0.518980	0.754520
C91	C9	0.840000	0.598100	0.826100
C101	C10	0.847140	0.590470	0.926190
C111	C11	0.885200	0.435310	0.889480
C121	C12	0.879100	0.436200	0.788100
C131	C13	0.297820	0.878530	0.394370
C141	C14	0.392900	0.868760	0.382140
C151	C15	0.467530	0.863690	0.466120
C161	C16	0.439840	0.866090	0.558370
C171	C17	0.343810	0.876770	0.564640
C181	C18	0.570550	0.858600	0.454650
C191	C19	0.649000	0.855300	0.528600
C201	C20	0.754520	0.857500	0.518980
C211	C21	0.826100	0.840000	0.598100
C221	C22	0.926190	0.847140	0.590470
C231	C23	0.889480	0.885200	0.435310
C241	C24	0.788100	0.879100	0.436200
C251	C25	0.394370	0.297820	0.878530
C261	C26	0.382140	0.392900	0.868760
C271	C27	0.466120	0.467530	0.863690
C281	C28	0.558370	0.439840	0.866090
C291	C29	0.564640	0.343810	0.876770
C301	C30	0.454650	0.570550	0.858600
C311	C31	0.528600	0.649000	0.855300
C321	C32	0.518980	0.754520	0.857500
C331	C33	0.598100	0.826100	0.840000
C341	C34	0.590470	0.926190	0.847140
C351	C35	0.435310	0.889480	0.885200
C361	C36	0.436200	0.788100	0.879100
C371	C37	0.605630	0.121470	0.702180
C381	C38	0.617860	0.131240	0.607100
C391	C39	0.533880	0.136310	0.532470
C401	C40	0.441630	0.133910	0.560160
C411	C41	0.435360	0.123230	0.656190
C421	C42	0.545350	0.141400	0.429450
C431	C43	0.471400	0.144700	0.351000
C441	C44	0.481020	0.142500	0.245480
C451	C45	0.401900	0.160000	0.173900
C461	C46	0.409530	0.152860	0.073810
C471	C47	0.564690	0.114800	0.110520
C481	C48	0.563800	0.120900	0.211900
C491	C49	0.121470	0.702180	0.605630
C501	C50	0.131240	0.607100	0.617860
C511	C51	0.136310	0.532470	0.533880
C521	C52	0.133910	0.560160	0.441630
C531	C53	0.123230	0.656190	0.435360
C541	C54	0.141400	0.429450	0.545350
C551	C55	0.144700	0.351000	0.471400
C561	C56	0.142500	0.245480	0.481020
C571	C57	0.160000	0.173900	0.401900
C581	C58	0.152860	0.073810	0.409530
C591	C59	0.114800	0.110520	0.564690
C601	C60	0.120900	0.211900	0.563800
C611	C61	0.702180	0.605630	0.121470
C621	C62	0.607100	0.617860	0.131240
C631	C63	0.532470	0.533880	0.136310
C641	C64	0.560160	0.441630	0.133910
C651	C65	0.656190	0.435360	0.123230
C661	C66	0.429450	0.545350	0.141400
C671	C67	0.351000	0.471400	0.144700
C681	C68	0.245480	0.481020	0.142500
C691	C69	0.173900	0.401900	0.160000
C701	C70	0.073810	0.409530	0.152860
C711	C71	0.110520	0.564690	0.114800
C721	C72	0.211900	0.563800	0.120900
N11	N1	0.869850	0.511020	0.959350
N21	N2	0.883790	0.483800	0.272250
N31	N3	0.959350	0.869850	0.511020
N41	N4	0.272250	0.883790	0.483800
N51	N5	0.511020	0.959350	0.869850
N61	N6	0.483800	0.272250	0.883790
N71	N7	0.488980	0.130150	0.040650
N81	N8	0.516200	0.116210	0.727750
N91	N9	0.130150	0.040650	0.488980
N101	N10	0.116210	0.727750	0.516200
N111	N11	0.040650	0.488980	0.130150
N121	N12	0.727750	0.516200	0.116210
O11	O1	0.831250	0.342250	0.061340
O21	O2	0.061340	0.831250	0.342250
O31	O3	0.342250	0.061340	0.831250
O41	O4	0.657750	0.168750	0.938660
O51	O5	0.168750	0.938660	0.657750
O61	O6	0.938660	0.657750	0.168750
