data_YEZKIZ_clean_PM
_symmetry_space_group_name_H-M	'P1'
_cell_length_a	13.542400
_cell_length_b	13.542400
_cell_length_c	13.542400
_cell_angle_alpha	102.858000
_cell_angle_beta	102.858000
_cell_angle_gamma	102.858000
_symmetry_Int_Tables_number 1

loop_
_symmetry_equiv_pos_as_xyz
'x,y,z'

loop_
_atom_site_label
_atom_site_type_symbol
_atom_site_fract_x
_atom_site_fract_y
_atom_site_fract_z
Cr11	Cr1	0.000000	0.210300	0.789700
Cr21	Cr2	0.789700	0.000000	0.210300
Cr31	Cr3	0.210300	0.789700	0.000000
Ni11	Ni1	0.115930	0.500000	0.884070
Ni21	Ni2	0.884070	0.115930	0.500000
Ni31	Ni3	0.500000	0.884070	0.115930
H11	H1	0.118600	0.370100	0.675500
H21	H2	0.117400	0.665500	0.758100
H31	H3	0.141600	0.381700	0.515500
H41	H4	0.149800	0.347800	0.018600
H51	H5	0.113300	0.630400	0.092900
H61	H6	0.136900	0.685700	0.599000
H71	H7	0.126600	0.628200	0.264200
H81	H8	0.150400	0.406600	0.364800
H91	H9	0.164800	0.337700	0.188000
H101	H10	0.149500	0.613900	0.422700
H111	H11	0.675500	0.118600	0.370100
H121	H12	0.758100	0.117400	0.665500
H131	H13	0.515500	0.141600	0.381700
H141	H14	0.018600	0.149800	0.347800
H151	H15	0.092900	0.113300	0.630400
H161	H16	0.599000	0.136900	0.685700
H171	H17	0.264200	0.126600	0.628200
H181	H18	0.364800	0.150400	0.406600
H191	H19	0.188000	0.164800	0.337700
H201	H20	0.422700	0.149500	0.613900
H211	H21	0.370100	0.675500	0.118600
H221	H22	0.665500	0.758100	0.117400
H231	H23	0.381700	0.515500	0.141600
H241	H24	0.347800	0.018600	0.149800
H251	H25	0.630400	0.092900	0.113300
H261	H26	0.685700	0.599000	0.136900
H271	H27	0.628200	0.264200	0.126600
H281	H28	0.406600	0.364800	0.150400
H291	H29	0.337700	0.188000	0.164800
H301	H30	0.613900	0.422700	0.149500
H311	H31	0.629900	0.881400	0.324500
H321	H32	0.334500	0.882600	0.241900
H331	H33	0.618300	0.858400	0.484500
H341	H34	0.652200	0.850200	0.981400
H351	H35	0.369600	0.886700	0.907100
H361	H36	0.314300	0.863100	0.401000
H371	H37	0.371800	0.873400	0.735800
H381	H38	0.593400	0.849600	0.635200
H391	H39	0.662300	0.835200	0.812000
H401	H40	0.386100	0.850500	0.577300
H411	H41	0.881400	0.324500	0.629900
H421	H42	0.882600	0.241900	0.334500
H431	H43	0.858400	0.484500	0.618300
H441	H44	0.850200	0.981400	0.652200
H451	H45	0.886700	0.907100	0.369600
H461	H46	0.863100	0.401000	0.314300
H471	H47	0.873400	0.735800	0.371800
H481	H48	0.849600	0.635200	0.593400
H491	H49	0.835200	0.812000	0.662300
H501	H50	0.850500	0.577300	0.386100
H511	H51	0.324500	0.629900	0.881400
H521	H52	0.241900	0.334500	0.882600
H531	H53	0.484500	0.618300	0.858400
H541	H54	0.981400	0.652200	0.850200
H551	H55	0.907100	0.369600	0.886700
H561	H56	0.401000	0.314300	0.863100
H571	H57	0.735800	0.371800	0.873400
H581	H58	0.635200	0.593400	0.849600
H591	H59	0.812000	0.662300	0.835200
H601	H60	0.577300	0.386100	0.850500
C11	C1	0.122100	0.434550	0.659240
C21	C2	0.120940	0.607180	0.707640
C31	C3	0.135270	0.440550	0.563090
C41	C4	0.144800	0.405320	0.068980
C51	C5	0.123500	0.570240	0.112560
C61	C6	0.144600	0.481200	0.246500
C71	C7	0.139200	0.535130	0.536280
C81	C8	0.133000	0.619900	0.612600
C91	C9	0.130800	0.569200	0.215200
C101	C10	0.147300	0.471900	0.352700
C111	C11	0.153200	0.398400	0.170400
C121	C12	0.145900	0.546830	0.432770
C131	C13	0.659240	0.122100	0.434550
C141	C14	0.707640	0.120940	0.607180
C151	C15	0.563090	0.135270	0.440550
C161	C16	0.068980	0.144800	0.405320
C171	C17	0.112560	0.123500	0.570240
C181	C18	0.246500	0.144600	0.481200
C191	C19	0.536280	0.139200	0.535130
C201	C20	0.612600	0.133000	0.619900
C211	C21	0.215200	0.130800	0.569200
C221	C22	0.352700	0.147300	0.471900
C231	C23	0.170400	0.153200	0.398400
C241	C24	0.432770	0.145900	0.546830
C251	C25	0.434550	0.659240	0.122100
C261	C26	0.607180	0.707640	0.120940
C271	C27	0.440550	0.563090	0.135270
C281	C28	0.405320	0.068980	0.144800
C291	C29	0.570240	0.112560	0.123500
C301	C30	0.481200	0.246500	0.144600
C311	C31	0.535130	0.536280	0.139200
C321	C32	0.619900	0.612600	0.133000
C331	C33	0.569200	0.215200	0.130800
C341	C34	0.471900	0.352700	0.147300
C351	C35	0.398400	0.170400	0.153200
C361	C36	0.546830	0.432770	0.145900
C371	C37	0.565450	0.877900	0.340760
C381	C38	0.392820	0.879060	0.292360
C391	C39	0.559450	0.864730	0.436910
C401	C40	0.594680	0.855200	0.931020
C411	C41	0.429760	0.876500	0.887440
C421	C42	0.518800	0.855400	0.753500
C431	C43	0.464870	0.860800	0.463720
C441	C44	0.380100	0.867000	0.387400
C451	C45	0.430800	0.869200	0.784800
C461	C46	0.528100	0.852700	0.647300
C471	C47	0.601600	0.846800	0.829600
C481	C48	0.453170	0.854100	0.567230
C491	C49	0.877900	0.340760	0.565450
C501	C50	0.879060	0.292360	0.392820
C511	C51	0.864730	0.436910	0.559450
C521	C52	0.855200	0.931020	0.594680
C531	C53	0.876500	0.887440	0.429760
C541	C54	0.855400	0.753500	0.518800
C551	C55	0.860800	0.463720	0.464870
C561	C56	0.867000	0.387400	0.380100
C571	C57	0.869200	0.784800	0.430800
C581	C58	0.852700	0.647300	0.528100
C591	C59	0.846800	0.829600	0.601600
C601	C60	0.854100	0.567230	0.453170
C611	C61	0.340760	0.565450	0.877900
C621	C62	0.292360	0.392820	0.879060
C631	C63	0.436910	0.559450	0.864730
C641	C64	0.931020	0.594680	0.855200
C651	C65	0.887440	0.429760	0.876500
C661	C66	0.753500	0.518800	0.855400
C671	C67	0.463720	0.464870	0.860800
C681	C68	0.387400	0.380100	0.867000
C691	C69	0.784800	0.430800	0.869200
C701	C70	0.647300	0.528100	0.852700
C711	C71	0.829600	0.601600	0.846800
C721	C72	0.567230	0.453170	0.854100
N11	N1	0.114060	0.515730	0.731480
N21	N2	0.130020	0.489090	0.039020
N31	N3	0.731480	0.114060	0.515730
N41	N4	0.039020	0.130020	0.489090
N51	N5	0.515730	0.731480	0.114060
N61	N6	0.489090	0.039020	0.130020
N71	N7	0.484270	0.885940	0.268520
N81	N8	0.510910	0.869980	0.960980
N91	N9	0.885940	0.268520	0.484270
N101	N10	0.869980	0.960980	0.510910
N111	N11	0.268520	0.484270	0.885940
N121	N12	0.960980	0.510910	0.869980
O11	O1	0.057180	0.339020	0.827700
O21	O2	0.827700	0.057180	0.339020
O31	O3	0.339020	0.827700	0.057180
O41	O4	0.660980	0.942820	0.172300
O51	O5	0.942820	0.172300	0.660980
O61	O6	0.172300	0.660980	0.942820
