data_YICDAR_clean_PM
_symmetry_space_group_name_H-M	'P1'
_cell_length_a	27.384000
_cell_length_b	27.384000
_cell_length_c	9.114000
_cell_angle_alpha	90.000000
_cell_angle_beta	90.000000
_cell_angle_gamma	120.000000
_symmetry_Int_Tables_number 1

loop_
_symmetry_equiv_pos_as_xyz
'x,y,z'

loop_
_atom_site_label
_atom_site_type_symbol
_atom_site_fract_x
_atom_site_fract_y
_atom_site_fract_z
Mg11	Mg1	0.110460	0.122530	0.085400
O11	O1	0.194470	0.146810	0.079000
O21	O2	0.192850	0.066200	0.028100
C11	C1	0.217260	0.116790	0.071000
C21	C2	0.277080	0.142220	0.117800
C31	C3	0.305270	0.196460	0.174400
C41	C4	0.305590	0.111500	0.110400
N11	N1	0.283000	0.056500	0.051600
C51	C5	0.077260	0.005060	0.216600
H11	H1	0.065600	0.985500	0.304900
O31	O3	0.095990	0.056420	0.222000
O41	O4	0.072360	0.976660	0.103900
N21	N2	0.282000	0.227200	0.197000
Mg21	Mg2	0.777130	0.455860	0.418730
O51	O5	0.861140	0.480140	0.412330
O61	O6	0.859520	0.399530	0.361430
C61	C6	0.883930	0.450120	0.404330
C71	C7	0.943750	0.475550	0.451130
C81	C8	0.971940	0.529790	0.507730
C91	C9	0.972260	0.444830	0.443730
N31	N3	0.949670	0.389830	0.384930
C101	C10	0.743930	0.338390	0.549930
H21	H2	0.732270	0.318830	0.638230
O71	O7	0.762660	0.389750	0.555330
O81	O8	0.739030	0.309990	0.437230
N41	N4	0.948670	0.560530	0.530330
Mg31	Mg3	0.443790	0.789200	0.752070
O91	O9	0.527800	0.813480	0.745670
O101	O10	0.526180	0.732870	0.694770
C111	C11	0.550590	0.783460	0.737670
C121	C12	0.610410	0.808890	0.784470
C131	C13	0.638600	0.863130	0.841070
C141	C14	0.638920	0.778170	0.777070
N51	N5	0.616330	0.723170	0.718270
C151	C15	0.410590	0.671730	0.883270
H31	H3	0.398930	0.652170	0.971570
O111	O11	0.429320	0.723090	0.888670
O121	O12	0.405690	0.643330	0.770570
N61	N6	0.615330	0.893870	0.863670
Mg41	Mg4	0.877470	0.987930	0.085400
O131	O13	0.853190	0.047660	0.079000
O141	O14	0.933800	0.126650	0.028100
C161	C16	0.883210	0.100470	0.071000
C171	C17	0.857780	0.134860	0.117800
C181	C18	0.803540	0.108810	0.174400
C191	C19	0.888500	0.194090	0.110400
N71	N7	0.943500	0.226500	0.051600
C201	C20	0.994940	0.072200	0.216600
H41	H4	0.014500	0.080100	0.304900
O151	O15	0.943580	0.039570	0.222000
O161	O16	0.023340	0.095700	0.103900
N81	N8	0.772800	0.054800	0.197000
Mg51	Mg5	0.544140	0.321260	0.418730
O171	O17	0.519860	0.380990	0.412330
O181	O18	0.600470	0.459980	0.361430
C211	C21	0.549880	0.433800	0.404330
C221	C22	0.524450	0.468190	0.451130
C231	C23	0.470210	0.442140	0.507730
C241	C24	0.555170	0.527420	0.443730
N91	N9	0.610170	0.559830	0.384930
C251	C25	0.661610	0.405530	0.549930
H51	H5	0.681170	0.413430	0.638230
O191	O19	0.610250	0.372900	0.555330
O201	O20	0.690010	0.429030	0.437230
N101	N10	0.439470	0.388130	0.530330
Mg61	Mg6	0.210800	0.654600	0.752070
O211	O21	0.186520	0.714330	0.745670
O221	O22	0.267130	0.793320	0.694770
C261	C26	0.216540	0.767140	0.737670
C271	C27	0.191110	0.801530	0.784470
C281	C28	0.136870	0.775480	0.841070
C291	C29	0.221830	0.860760	0.777070
N111	N11	0.276830	0.893170	0.718270
C301	C30	0.328270	0.738870	0.883270
H61	H6	0.347830	0.746770	0.971570
O231	O23	0.276910	0.706240	0.888670
O241	O24	0.356670	0.762370	0.770570
N121	N12	0.106130	0.721470	0.863670
Mg71	Mg7	0.012070	0.889540	0.085400
O251	O25	0.952340	0.805530	0.079000
O261	O26	0.873350	0.807150	0.028100
C311	C31	0.899530	0.782740	0.071000
C321	C32	0.865140	0.722920	0.117800
C331	C33	0.891190	0.694730	0.174400
C341	C34	0.805910	0.694410	0.110400
N131	N13	0.773500	0.717000	0.051600
C351	C35	0.927800	0.922740	0.216600
H71	H7	0.919900	0.934400	0.304900
O271	O27	0.960430	0.904010	0.222000
O281	O28	0.904300	0.927640	0.103900
N141	N14	0.945200	0.718000	0.197000
Mg81	Mg8	0.678740	0.222870	0.418730
O291	O29	0.619010	0.138860	0.412330
O301	O30	0.540020	0.140480	0.361430
C361	C36	0.566200	0.116070	0.404330
C371	C37	0.531810	0.056250	0.451130
C381	C38	0.557860	0.028060	0.507730
C391	C39	0.472580	0.027740	0.443730
N151	N15	0.440170	0.050330	0.384930
C401	C40	0.594470	0.256070	0.549930
H81	H8	0.586570	0.267730	0.638230
O311	O31	0.627100	0.237340	0.555330
O321	O32	0.570970	0.260970	0.437230
N161	N16	0.611870	0.051330	0.530330
Mg91	Mg9	0.345400	0.556210	0.752070
O331	O33	0.285670	0.472200	0.745670
O341	O34	0.206680	0.473820	0.694770
C411	C41	0.232860	0.449410	0.737670
C421	C42	0.198470	0.389590	0.784470
C431	C43	0.224520	0.361400	0.841070
C441	C44	0.139240	0.361080	0.777070
N171	N17	0.106830	0.383670	0.718270
C451	C45	0.261130	0.589410	0.883270
H91	H9	0.253230	0.601070	0.971570
O351	O35	0.293760	0.570680	0.888670
O361	O36	0.237630	0.594310	0.770570
N181	N18	0.278530	0.384670	0.863670
Mg101	Mg10	0.889540	0.877470	0.914600
O371	O37	0.805530	0.853190	0.921000
O381	O38	0.807150	0.933800	0.971900
C461	C46	0.782740	0.883210	0.929000
C471	C47	0.722920	0.857780	0.882200
C481	C48	0.694730	0.803540	0.825600
C491	C49	0.694410	0.888500	0.889600
N191	N19	0.717000	0.943500	0.948400
C501	C50	0.922740	0.994940	0.783400
H101	H10	0.934400	0.014500	0.695100
O391	O39	0.904010	0.943580	0.778000
O401	O40	0.927640	0.023340	0.896100
N201	N20	0.718000	0.772800	0.803000
Mg111	Mg11	0.556210	0.210800	0.247930
O411	O41	0.472200	0.186520	0.254330
O421	O42	0.473820	0.267130	0.305230
C511	C51	0.449410	0.216540	0.262330
C521	C52	0.389590	0.191110	0.215530
C531	C53	0.361400	0.136870	0.158930
C541	C54	0.361080	0.221830	0.222930
N211	N21	0.383670	0.276830	0.281730
C551	C55	0.589410	0.328270	0.116730
H111	H11	0.601070	0.347830	0.028430
O431	O43	0.570680	0.276910	0.111330
O441	O44	0.594310	0.356670	0.229430
N221	N22	0.384670	0.106130	0.136330
Mg121	Mg12	0.222870	0.544140	0.581270
O451	O45	0.138860	0.519860	0.587670
O461	O46	0.140480	0.600470	0.638570
C561	C56	0.116070	0.549880	0.595670
C571	C57	0.056250	0.524450	0.548870
C581	C58	0.028060	0.470210	0.492270
C591	C59	0.027740	0.555170	0.556270
N231	N23	0.050330	0.610170	0.615070
C601	C60	0.256070	0.661610	0.450070
H121	H12	0.267730	0.681170	0.361770
O471	O47	0.237340	0.610250	0.444670
O481	O48	0.260970	0.690010	0.562770
N241	N24	0.051330	0.439470	0.469670
Mg131	Mg13	0.122530	0.012070	0.914600
O491	O49	0.146810	0.952340	0.921000
O501	O50	0.066200	0.873350	0.971900
C611	C61	0.116790	0.899530	0.929000
C621	C62	0.142220	0.865140	0.882200
C631	C63	0.196460	0.891190	0.825600
C641	C64	0.111500	0.805910	0.889600
N251	N25	0.056500	0.773500	0.948400
C651	C65	0.005060	0.927800	0.783400
H131	H13	0.985500	0.919900	0.695100
O511	O51	0.056420	0.960430	0.778000
O521	O52	0.976660	0.904300	0.896100
N261	N26	0.227200	0.945200	0.803000
Mg141	Mg14	0.789200	0.345400	0.247930
O531	O53	0.813480	0.285670	0.254330
O541	O54	0.732870	0.206680	0.305230
C661	C66	0.783460	0.232860	0.262330
C671	C67	0.808890	0.198470	0.215530
C681	C68	0.863130	0.224520	0.158930
C691	C69	0.778170	0.139240	0.222930
N271	N27	0.723170	0.106830	0.281730
C701	C70	0.671730	0.261130	0.116730
H141	H14	0.652170	0.253230	0.028430
O551	O55	0.723090	0.293760	0.111330
O561	O56	0.643330	0.237630	0.229430
N281	N28	0.893870	0.278530	0.136330
Mg151	Mg15	0.455860	0.678740	0.581270
O571	O57	0.480140	0.619010	0.587670
O581	O58	0.399530	0.540020	0.638570
C711	C71	0.450120	0.566200	0.595670
C721	C72	0.475550	0.531810	0.548870
C731	C73	0.529790	0.557860	0.492270
C741	C74	0.444830	0.472580	0.556270
N291	N29	0.389830	0.440170	0.615070
C751	C75	0.338390	0.594470	0.450070
H151	H15	0.318830	0.586570	0.361770
O591	O59	0.389750	0.627100	0.444670
O601	O60	0.309990	0.570970	0.562770
N301	N30	0.560530	0.611870	0.469670
Mg161	Mg16	0.987930	0.110460	0.914600
O611	O61	0.047660	0.194470	0.921000
O621	O62	0.126650	0.192850	0.971900
C761	C76	0.100470	0.217260	0.929000
C771	C77	0.134860	0.277080	0.882200
C781	C78	0.108810	0.305270	0.825600
C791	C79	0.194090	0.305590	0.889600
N311	N31	0.226500	0.283000	0.948400
C801	C80	0.072200	0.077260	0.783400
H161	H16	0.080100	0.065600	0.695100
O631	O63	0.039570	0.095990	0.778000
O641	O64	0.095700	0.072360	0.896100
N321	N32	0.054800	0.282000	0.803000
Mg171	Mg17	0.654600	0.443790	0.247930
O651	O65	0.714330	0.527800	0.254330
O661	O66	0.793320	0.526180	0.305230
C811	C81	0.767140	0.550590	0.262330
C821	C82	0.801530	0.610410	0.215530
C831	C83	0.775480	0.638600	0.158930
C841	C84	0.860760	0.638920	0.222930
N331	N33	0.893170	0.616330	0.281730
C851	C85	0.738870	0.410590	0.116730
H171	H17	0.746770	0.398930	0.028430
O671	O67	0.706240	0.429320	0.111330
O681	O68	0.762370	0.405690	0.229430
N341	N34	0.721470	0.615330	0.136330
Mg181	Mg18	0.321260	0.777130	0.581270
O691	O69	0.380990	0.861140	0.587670
O701	O70	0.459980	0.859520	0.638570
C861	C86	0.433800	0.883930	0.595670
C871	C87	0.468190	0.943750	0.548870
C881	C88	0.442140	0.971940	0.492270
C891	C89	0.527420	0.972260	0.556270
N351	N35	0.559830	0.949670	0.615070
C901	C90	0.405530	0.743930	0.450070
H181	H18	0.413430	0.732270	0.361770
O711	O71	0.372900	0.762660	0.444670
O721	O72	0.429030	0.739030	0.562770
N361	N36	0.388130	0.948670	0.469670
