data_YICGOI_clean_PM
_symmetry_space_group_name_H-M	'P1'
_cell_length_a	9.922800
_cell_length_b	17.554200
_cell_length_c	23.922300
_cell_angle_alpha	91.920000
_cell_angle_beta	90.000000
_cell_angle_gamma	90.000000
_symmetry_Int_Tables_number 1

loop_
_symmetry_equiv_pos_as_xyz
'x,y,z'

loop_
_atom_site_label
_atom_site_type_symbol
_atom_site_fract_x
_atom_site_fract_y
_atom_site_fract_z
Co11	Co1	0.687830	0.759490	0.632320
Co21	Co2	0.187830	0.740510	0.867680
Co31	Co3	0.312170	0.240510	0.367680
Co41	Co4	0.812170	0.259490	0.132320
H11	H1	0.649200	0.597400	0.484600
H21	H2	0.623700	0.500600	0.418300
H31	H3	0.702700	0.951100	0.529300
H41	H4	0.300200	0.946100	0.528700
H51	H5	0.696900	0.708800	0.757300
H61	H6	0.746600	0.604800	0.808100
H71	H7	0.892700	0.504600	0.669700
H81	H8	0.843800	0.612300	0.622700
H91	H9	0.862800	0.516200	0.852900
H101	H10	0.926300	0.408600	0.897900
H111	H11	0.913600	0.288700	0.752500
H121	H12	0.851500	0.396900	0.707700
H131	H13	0.592600	0.915600	0.670500
H141	H14	0.646400	0.024300	0.719500
H151	H15	0.969500	0.917900	0.778200
H161	H16	0.905500	0.811800	0.727000
H171	H17	0.669800	0.105300	0.787900
H181	H18	0.729500	0.218600	0.830300
H191	H19	0.110000	0.149200	0.839100
H201	H20	0.049600	0.033700	0.797600
H211	H21	0.728800	0.268600	0.013100
H221	H22	0.551300	0.275700	0.953800
H231	H23	0.305700	0.274000	0.085400
H241	H24	0.489400	0.261800	0.140600
H251	H25	0.155900	0.223400	0.021500
H261	H26	0.977900	0.220800	0.959800
H271	H27	0.198100	0.336800	0.851900
H281	H28	0.374900	0.338600	0.913800
H291	H29	0.149200	0.902600	0.015400
H301	H30	0.123700	0.999400	0.081700
H311	H31	0.202700	0.548900	0.970700
H321	H32	0.800200	0.553900	0.971300
H331	H33	0.196900	0.791200	0.742700
H341	H34	0.246600	0.895200	0.691900
H351	H35	0.392700	0.995400	0.830300
H361	H36	0.343800	0.887700	0.877300
H371	H37	0.362800	0.983800	0.647100
H381	H38	0.426300	0.091400	0.602100
H391	H39	0.413600	0.211300	0.747500
H401	H40	0.351500	0.103100	0.792300
H411	H41	0.092600	0.584400	0.829500
H421	H42	0.146400	0.475700	0.780500
H431	H43	0.469500	0.582100	0.721800
H441	H44	0.405500	0.688200	0.773000
H451	H45	0.169800	0.394700	0.712100
H461	H46	0.229500	0.281400	0.669700
H471	H47	0.610000	0.350800	0.660900
H481	H48	0.549600	0.466300	0.702400
H491	H49	0.228800	0.231400	0.486900
H501	H50	0.051300	0.224300	0.546200
H511	H51	0.805700	0.226000	0.414600
H521	H52	0.989400	0.238200	0.359400
H531	H53	0.655900	0.276600	0.478500
H541	H54	0.477900	0.279200	0.540200
H551	H55	0.698100	0.163200	0.648100
H561	H56	0.874900	0.161400	0.586200
H571	H57	0.350800	0.402600	0.515400
H581	H58	0.376300	0.499400	0.581700
H591	H59	0.297300	0.048900	0.470700
H601	H60	0.699800	0.053900	0.471300
H611	H61	0.303100	0.291200	0.242700
H621	H62	0.253400	0.395200	0.191900
H631	H63	0.107300	0.495400	0.330300
H641	H64	0.156200	0.387700	0.377300
H651	H65	0.137200	0.483800	0.147100
H661	H66	0.073700	0.591400	0.102100
H671	H67	0.086400	0.711300	0.247500
H681	H68	0.148500	0.603100	0.292300
H691	H69	0.407400	0.084400	0.329500
H701	H70	0.353600	0.975700	0.280500
H711	H71	0.030500	0.082100	0.221800
H721	H72	0.094500	0.188200	0.273000
H731	H73	0.330200	0.894700	0.212100
H741	H74	0.270500	0.781400	0.169700
H751	H75	0.890000	0.850800	0.160900
H761	H76	0.950400	0.966300	0.202400
H771	H77	0.271200	0.731400	0.986900
H781	H78	0.448700	0.724300	0.046200
H791	H79	0.694300	0.726000	0.914600
H801	H80	0.510600	0.738200	0.859400
H811	H81	0.844100	0.776600	0.978500
H821	H82	0.022100	0.779200	0.040200
H831	H83	0.801900	0.663200	0.148100
H841	H84	0.625100	0.661400	0.086200
H851	H85	0.850800	0.097400	0.984600
H861	H86	0.876300	0.000600	0.918300
H871	H87	0.797300	0.451100	0.029300
H881	H88	0.199800	0.446100	0.028700
H891	H89	0.803100	0.208800	0.257300
H901	H90	0.753400	0.104800	0.308100
H911	H91	0.607300	0.004600	0.169700
H921	H92	0.656200	0.112300	0.122700
H931	H93	0.637200	0.016200	0.352900
H941	H94	0.573700	0.908600	0.397900
H951	H95	0.586400	0.788700	0.252500
H961	H96	0.648500	0.896900	0.207700
H971	H97	0.907400	0.415600	0.170500
H981	H98	0.853600	0.524300	0.219500
H991	H99	0.530500	0.417900	0.278200
H1001	H100	0.594500	0.311800	0.227000
H1011	H101	0.830200	0.605300	0.287900
H1021	H102	0.770500	0.718600	0.330300
H1031	H103	0.390000	0.649200	0.339100
H1041	H104	0.450400	0.533700	0.297600
H1051	H105	0.771200	0.768600	0.513100
H1061	H106	0.948700	0.775700	0.453800
H1071	H107	0.194300	0.774000	0.585400
H1081	H108	0.010600	0.761800	0.640600
H1091	H109	0.344100	0.723400	0.521500
H1101	H110	0.522100	0.720800	0.459800
H1111	H111	0.301900	0.836800	0.351900
H1121	H112	0.125100	0.838600	0.413800
C11	C1	0.528000	0.624100	0.582640
C21	C2	0.515100	0.560010	0.539560
C31	C3	0.588400	0.558310	0.490990
C41	C4	0.574000	0.500000	0.451220
C51	C5	0.505400	0.872380	0.574040
C61	C6	0.620700	0.970590	0.517470
C71	C7	0.501800	0.937630	0.534690
C81	C8	0.380900	0.967490	0.517230
C91	C9	0.737000	0.667040	0.739020
C101	C10	0.765700	0.604090	0.769990
C111	C11	0.822800	0.539670	0.744440
C121	C12	0.852000	0.545440	0.688800
C131	C13	0.822000	0.610760	0.660430
C141	C14	0.853900	0.469470	0.774870
C151	C15	0.874200	0.470740	0.832410
C161	C16	0.910900	0.406040	0.859580
C171	C17	0.925100	0.337020	0.830190
C181	C18	0.903600	0.334390	0.772880
C191	C19	0.867400	0.399600	0.746060
C201	C20	0.671200	0.916300	0.691740
C211	C21	0.702300	0.981990	0.721650
C221	C22	0.816500	0.985990	0.755130
C231	C23	0.892400	0.919500	0.756230
C241	C24	0.853400	0.855620	0.724560
C251	C25	0.853900	0.056940	0.785960
C261	C26	0.759500	0.113790	0.797460
C271	C27	0.795400	0.182120	0.822600
C281	C28	0.927300	0.197640	0.836680
C291	C29	0.021200	0.140950	0.828090
C301	C30	0.984600	0.071410	0.803020
C311	C31	0.642200	0.268800	0.028040
C321	C32	0.535600	0.273800	0.992020
C331	C33	0.404700	0.276060	0.011950
C341	C34	0.391000	0.272200	0.069310
C351	C35	0.502500	0.265600	0.102320
C361	C36	0.286400	0.278880	0.974030
C371	C37	0.165800	0.245500	0.986910
C381	C38	0.058600	0.243800	0.949940
C391	C39	0.071700	0.276240	0.898430
C401	C40	0.189600	0.312700	0.885730
C411	C41	0.295500	0.313800	0.923030
C421	C42	0.028000	0.875900	0.917360
C431	C43	0.015100	0.939990	0.960440
C441	C44	0.088400	0.941690	0.009010
C451	C45	0.074000	0.000000	0.048780
C461	C46	0.005400	0.627620	0.925960
C471	C47	0.120700	0.529410	0.982530
C481	C48	0.001800	0.562370	0.965310
C491	C49	0.880900	0.532510	0.982770
C501	C50	0.237000	0.832960	0.760980
C511	C51	0.265700	0.895910	0.730010
C521	C52	0.322800	0.960330	0.755560
C531	C53	0.352000	0.954560	0.811200
C541	C54	0.322000	0.889240	0.839570
C551	C55	0.353900	0.030530	0.725130
C561	C56	0.374200	0.029260	0.667590
C571	C57	0.410900	0.093960	0.640420
C581	C58	0.425100	0.162980	0.669810
C591	C59	0.403600	0.165610	0.727120
C601	C60	0.367400	0.100400	0.753940
C611	C61	0.171200	0.583700	0.808260
C621	C62	0.202300	0.518010	0.778350
C631	C63	0.316500	0.514010	0.744870
C641	C64	0.392400	0.580500	0.743770
C651	C65	0.353400	0.644380	0.775440
C661	C66	0.353900	0.443060	0.714040
C671	C67	0.259500	0.386210	0.702540
C681	C68	0.295400	0.317880	0.677400
C691	C69	0.427300	0.302360	0.663320
C701	C70	0.521200	0.359050	0.671910
C711	C71	0.484600	0.428590	0.696980
C721	C72	0.142200	0.231200	0.471960
C731	C73	0.035600	0.226200	0.507980
C741	C74	0.904700	0.223940	0.488050
C751	C75	0.891000	0.227800	0.430690
C761	C76	0.002500	0.234400	0.397680
C771	C77	0.786400	0.221120	0.525970
C781	C78	0.665800	0.254500	0.513090
C791	C79	0.558600	0.256200	0.550060
C801	C80	0.571700	0.223760	0.601570
C811	C81	0.689600	0.187300	0.614270
C821	C82	0.795500	0.186200	0.576970
C831	C83	0.472000	0.375900	0.417360
C841	C84	0.484900	0.439990	0.460440
C851	C85	0.411600	0.441690	0.509010
C861	C86	0.426000	0.500000	0.548780
C871	C87	0.494600	0.127620	0.425960
C881	C88	0.379300	0.029410	0.482530
C891	C89	0.498200	0.062370	0.465310
C901	C90	0.619100	0.032510	0.482770
C911	C91	0.263000	0.332960	0.260980
C921	C92	0.234300	0.395910	0.230010
C931	C93	0.177200	0.460330	0.255560
C941	C94	0.148000	0.454560	0.311200
C951	C95	0.178000	0.389240	0.339570
C961	C96	0.146100	0.530530	0.225130
C971	C97	0.125800	0.529260	0.167590
C981	C98	0.089100	0.593960	0.140420
C991	C99	0.074900	0.662980	0.169810
C1001	C100	0.096400	0.665610	0.227120
C1011	C101	0.132600	0.600400	0.253940
C1021	C102	0.328800	0.083700	0.308260
C1031	C103	0.297700	0.018010	0.278350
C1041	C104	0.183500	0.014010	0.244870
C1051	C105	0.107600	0.080500	0.243770
C1061	C106	0.146600	0.144380	0.275440
C1071	C107	0.146100	0.943060	0.214040
C1081	C108	0.240500	0.886210	0.202540
C1091	C109	0.204600	0.817880	0.177400
C1101	C110	0.072700	0.802360	0.163320
C1111	C111	0.978800	0.859050	0.171910
C1121	C112	0.015400	0.928590	0.196980
C1131	C113	0.357800	0.731200	0.971960
C1141	C114	0.464400	0.726200	0.007980
C1151	C115	0.595300	0.723940	0.988050
C1161	C116	0.609000	0.727800	0.930690
C1171	C117	0.497500	0.734400	0.897680
C1181	C118	0.713600	0.721120	0.025970
C1191	C119	0.834200	0.754500	0.013090
C1201	C120	0.941400	0.756200	0.050060
C1211	C121	0.928300	0.723760	0.101570
C1221	C122	0.810400	0.687300	0.114270
C1231	C123	0.704500	0.686200	0.076970
C1241	C124	0.972000	0.124100	0.082640
C1251	C125	0.984900	0.060010	0.039560
C1261	C126	0.911600	0.058310	0.990990
C1271	C127	0.926000	0.000000	0.951220
C1281	C128	0.994600	0.372380	0.074040
C1291	C129	0.879300	0.470590	0.017470
C1301	C130	0.998200	0.437630	0.034690
C1311	C131	0.119100	0.467490	0.017230
C1321	C132	0.763000	0.167040	0.239020
C1331	C133	0.734300	0.104090	0.269990
C1341	C134	0.677200	0.039670	0.244440
C1351	C135	0.648000	0.045440	0.188800
C1361	C136	0.678000	0.110760	0.160430
C1371	C137	0.646100	0.969470	0.274870
C1381	C138	0.625800	0.970740	0.332410
C1391	C139	0.589100	0.906040	0.359580
C1401	C140	0.574900	0.837020	0.330190
C1411	C141	0.596400	0.834390	0.272880
C1421	C142	0.632600	0.899600	0.246060
C1431	C143	0.828800	0.416300	0.191740
C1441	C144	0.797700	0.481990	0.221650
C1451	C145	0.683500	0.485990	0.255130
C1461	C146	0.607600	0.419500	0.256230
C1471	C147	0.646600	0.355620	0.224560
C1481	C148	0.646100	0.556940	0.285960
C1491	C149	0.740500	0.613790	0.297460
C1501	C150	0.704600	0.682120	0.322600
C1511	C151	0.572700	0.697640	0.336680
C1521	C152	0.478800	0.640950	0.328090
C1531	C153	0.515400	0.571410	0.303020
C1541	C154	0.857800	0.768800	0.528040
C1551	C155	0.964400	0.773800	0.492020
C1561	C156	0.095300	0.776060	0.511950
C1571	C157	0.109000	0.772200	0.569310
C1581	C158	0.997500	0.765600	0.602320
C1591	C159	0.213600	0.778880	0.474030
C1601	C160	0.334200	0.745500	0.486910
C1611	C161	0.441400	0.743800	0.449940
C1621	C162	0.428300	0.776240	0.398430
C1631	C163	0.310400	0.812700	0.385730
C1641	C164	0.204500	0.813800	0.423030
N11	N1	0.763200	0.671690	0.684840
N21	N2	0.747400	0.852850	0.691240
N31	N3	0.628900	0.264170	0.083160
N41	N4	0.963400	0.270640	0.858920
N51	N5	0.263200	0.828310	0.815160
N61	N6	0.247400	0.647150	0.808760
N71	N7	0.128900	0.235830	0.416840
N81	N8	0.463400	0.229360	0.641080
N91	N9	0.236800	0.328310	0.315160
N101	N10	0.252600	0.147150	0.308760
N111	N11	0.371100	0.735830	0.916840
N121	N12	0.036600	0.729360	0.141080
N131	N13	0.736800	0.171690	0.184840
N141	N14	0.752600	0.352850	0.191240
N151	N15	0.871100	0.764170	0.583160
N161	N16	0.536600	0.770640	0.358920
O11	O1	0.444300	0.627460	0.620940
O21	O2	0.623300	0.670680	0.576230
O31	O3	0.616710	0.839270	0.578420
O41	O4	0.401070	0.857680	0.601090
O51	O5	0.944300	0.872540	0.879060
O61	O6	0.123300	0.829320	0.923770
O71	O7	0.116710	0.660730	0.921580
O81	O8	0.901070	0.642320	0.898910
O91	O9	0.555700	0.372540	0.379060
O101	O10	0.376700	0.329320	0.423770
O111	O11	0.383290	0.160730	0.421580
O121	O12	0.598930	0.142320	0.398910
O131	O13	0.055700	0.127460	0.120940
O141	O14	0.876700	0.170680	0.076230
O151	O15	0.883290	0.339270	0.078420
O161	O16	0.098930	0.357680	0.101090
