data_YICREI_clean_PM
_symmetry_space_group_name_H-M	'P1'
_cell_length_a	6.799200
_cell_length_b	11.553000
_cell_length_c	17.058000
_cell_angle_alpha	92.490000
_cell_angle_beta	90.000000
_cell_angle_gamma	90.000000
_symmetry_Int_Tables_number 1

loop_
_symmetry_equiv_pos_as_xyz
'x,y,z'

loop_
_atom_site_label
_atom_site_type_symbol
_atom_site_fract_x
_atom_site_fract_y
_atom_site_fract_z
H11	H1	0.280700	0.107100	0.026500
H21	H2	0.733500	0.015500	0.083900
H31	H3	0.349900	0.396900	0.097400
H41	H4	0.834500	0.537400	0.005500
H51	H5	0.780700	0.392900	0.473500
H61	H6	0.233500	0.484500	0.416100
H71	H7	0.849900	0.103100	0.402600
H81	H8	0.334500	0.962600	0.494500
H91	H9	0.719300	0.892900	0.973500
H101	H10	0.266500	0.984500	0.916100
H111	H11	0.650100	0.603100	0.902600
H121	H12	0.165500	0.462600	0.994500
H131	H13	0.219300	0.607100	0.526500
H141	H14	0.766500	0.515500	0.583900
H151	H15	0.150100	0.896900	0.597400
H161	H16	0.665500	0.037400	0.505500
Pb11	Pb1	0.949420	0.342850	0.256930
Pb21	Pb2	0.449420	0.157150	0.243070
Pb31	Pb3	0.050580	0.657150	0.743070
Pb41	Pb4	0.550580	0.842850	0.756930
C11	C1	0.019400	0.154000	0.138500
C21	C2	0.010600	0.073000	0.067000
C31	C3	0.167600	0.063800	0.016100
C41	C4	0.841100	0.009200	0.050400
C51	C5	0.733800	0.417700	0.127400
C61	C6	0.610900	0.459900	0.061500
C71	C7	0.410000	0.438100	0.058300
C81	C8	0.700200	0.522400	0.003100
C91	C9	0.519400	0.346000	0.361500
C101	C10	0.510600	0.427000	0.433000
C111	C11	0.667600	0.436200	0.483900
C121	C12	0.341100	0.490800	0.449600
C131	C13	0.233800	0.082300	0.372600
C141	C14	0.110900	0.040100	0.438500
C151	C15	0.910000	0.061900	0.441700
C161	C16	0.200200	0.977600	0.496900
C171	C17	0.980600	0.846000	0.861500
C181	C18	0.989400	0.927000	0.933000
C191	C19	0.832400	0.936200	0.983900
C201	C20	0.158900	0.990800	0.949600
C211	C21	0.266200	0.582300	0.872600
C221	C22	0.389100	0.540100	0.938500
C231	C23	0.590000	0.561900	0.941700
C241	C24	0.299800	0.477600	0.996900
C251	C25	0.480600	0.654000	0.638500
C261	C26	0.489400	0.573000	0.567000
C271	C27	0.332400	0.563800	0.516100
C281	C28	0.658900	0.509200	0.550400
C291	C29	0.766200	0.917700	0.627400
C301	C30	0.889100	0.959900	0.561500
C311	C31	0.090000	0.938100	0.558300
C321	C32	0.799800	0.022400	0.503100
O11	O1	0.869900	0.164400	0.180400
O21	O2	0.177900	0.209500	0.151810
O31	O3	0.645900	0.370900	0.183900
O41	O4	0.915700	0.430200	0.126200
O51	O5	0.369900	0.335600	0.319600
O61	O6	0.677900	0.290500	0.348190
O71	O7	0.145900	0.129100	0.316100
O81	O8	0.415700	0.069800	0.373800
O91	O9	0.130100	0.835600	0.819600
O101	O10	0.822100	0.790500	0.848190
O111	O11	0.354100	0.629100	0.816100
O121	O12	0.084300	0.569800	0.873800
O131	O13	0.630100	0.664400	0.680400
O141	O14	0.322100	0.709500	0.651810
O151	O15	0.854100	0.870900	0.683900
O161	O16	0.584300	0.930200	0.626200
