data_YICTUZ_clean_PM
_symmetry_space_group_name_H-M	'P1'
_cell_length_a	8.856000
_cell_length_b	9.069000
_cell_length_c	15.535000
_cell_angle_alpha	90.000000
_cell_angle_beta	90.000000
_cell_angle_gamma	114.430000
_symmetry_Int_Tables_number 1

loop_
_symmetry_equiv_pos_as_xyz
'x,y,z'

loop_
_atom_site_label
_atom_site_type_symbol
_atom_site_fract_x
_atom_site_fract_y
_atom_site_fract_z
Np11	Np1	0.247590	0.374320	0.358390
Np21	Np2	0.767850	0.643180	0.372640
Np31	Np3	0.252410	0.125680	0.858390
Np41	Np4	0.732150	0.856820	0.872640
Np51	Np5	0.752410	0.625680	0.641610
Np61	Np6	0.232150	0.356820	0.627360
Np71	Np7	0.747590	0.874320	0.141610
Np81	Np8	0.267850	0.143180	0.127360
C11	C1	0.129000	0.968000	0.420800
C21	C2	0.168000	0.706000	0.393600
C31	C3	0.194000	0.848000	0.455600
C41	C4	0.371000	0.532000	0.920800
C51	C5	0.332000	0.794000	0.893600
C61	C6	0.306000	0.652000	0.955600
C71	C7	0.871000	0.032000	0.579200
C81	C8	0.832000	0.294000	0.606400
C91	C9	0.806000	0.152000	0.544400
C101	C10	0.629000	0.468000	0.079200
C111	C11	0.668000	0.206000	0.106400
C121	C12	0.694000	0.348000	0.044400
O11	O1	0.474400	0.455900	0.371300
O21	O2	0.784000	0.600000	0.487300
O31	O3	0.755500	0.691800	0.258400
O41	O4	0.228000	0.115200	0.422500
O51	O5	0.980700	0.918200	0.395800
O61	O6	0.280800	0.655900	0.392500
O71	O7	0.040000	0.647000	0.350100
O81	O8	0.025600	0.044100	0.871300
O91	O9	0.716000	0.900000	0.987300
O101	O10	0.744500	0.808200	0.758400
O111	O11	0.272000	0.384800	0.922500
O121	O12	0.519300	0.581800	0.895800
O131	O13	0.219200	0.844100	0.892500
O141	O14	0.460000	0.853000	0.850100
O151	O15	0.525600	0.544100	0.628700
O161	O16	0.216000	0.400000	0.512700
O171	O17	0.244500	0.308200	0.741600
O181	O18	0.772000	0.884800	0.577500
O191	O19	0.019300	0.081800	0.604200
O201	O20	0.719200	0.344100	0.607500
O211	O21	0.960000	0.353000	0.649900
O221	O22	0.974400	0.955900	0.128700
O231	O23	0.284000	0.100000	0.012700
O241	O24	0.255500	0.191800	0.241600
O251	O25	0.728000	0.615200	0.077500
O261	O26	0.480700	0.418200	0.104200
O271	O27	0.780800	0.155900	0.107500
O281	O28	0.540000	0.147000	0.149900
