data_YIJYUN_clean_PM
_symmetry_space_group_name_H-M	'P1'
_cell_length_a	8.700000
_cell_length_b	11.451700
_cell_length_c	23.049100
_cell_angle_alpha	90.000000
_cell_angle_beta	90.000000
_cell_angle_gamma	90.000000
_symmetry_Int_Tables_number 1

loop_
_symmetry_equiv_pos_as_xyz
'x,y,z'

loop_
_atom_site_label
_atom_site_type_symbol
_atom_site_fract_x
_atom_site_fract_y
_atom_site_fract_z
Zn11	Zn1	0.152290	0.825960	0.727960
Zn21	Zn2	0.633040	0.790670	0.658850
N11	N1	0.146400	0.953000	0.667400
N21	N2	0.128400	0.555700	0.391100
O11	O1	0.566700	0.601400	0.680100
O21	O2	0.478300	0.696000	0.606300
O31	O3	0.169600	0.658400	0.715900
O41	O4	0.104400	0.665100	0.623700
O51	O5	0.691500	0.346700	0.709800
O61	O6	0.537100	0.350900	0.785000
O71	O7	0.182900	0.314800	0.788000
O81	O8	0.023100	0.378700	0.723000
C11	C1	0.452800	0.387500	0.626900
H11	H1	0.562900	0.395100	0.621400
H21	H2	0.414300	0.329300	0.600000
C21	C2	0.374300	0.503000	0.616900
H31	H3	0.344700	0.512100	0.576200
C31	C3	0.232100	0.496500	0.656200
H41	H4	0.154800	0.448500	0.636600
C41	C4	0.285600	0.430100	0.710800
H51	H5	0.330200	0.487700	0.737400
C51	C5	0.416800	0.351400	0.690000
H61	H6	0.377800	0.271100	0.689000
C61	C6	0.484300	0.604100	0.636600
C71	C7	0.164800	0.616100	0.665200
C81	C8	0.156800	0.370900	0.742500
C91	C9	0.557400	0.353000	0.729800
C101	C10	0.184400	0.938400	0.612900
H71	H7	0.220700	0.865500	0.601600
C111	C11	0.173900	0.026100	0.570300
H81	H8	0.202600	0.011400	0.532100
C121	C12	0.120200	0.133900	0.586700
C131	C13	0.079600	0.151800	0.643300
H91	H9	0.042700	0.224000	0.655400
C141	C14	0.094400	0.060000	0.682600
H101	H10	0.067300	0.072900	0.721100
C151	C15	0.097600	0.239900	0.546400
H111	H11	0.039700	0.302300	0.560200
C161	C16	0.151400	0.246900	0.497500
H121	H12	0.204200	0.183200	0.482400
C171	C17	0.135500	0.352600	0.461600
C181	C18	0.195800	0.351300	0.406000
H131	H13	0.242400	0.284400	0.391400
C191	C19	0.185500	0.451000	0.372400
H141	H14	0.220100	0.446600	0.334300
C201	C20	0.072300	0.553800	0.446900
H151	H15	0.029100	0.622400	0.461000
C211	C21	0.074700	0.457500	0.484000
H161	H16	0.037800	0.462200	0.521800
Zn31	Zn3	0.347710	0.174040	0.227960
Zn41	Zn4	0.866960	0.209330	0.158850
N31	N3	0.353600	0.047000	0.167400
N41	N4	0.371600	0.444300	0.891100
O91	O9	0.933300	0.398600	0.180100
O101	O10	0.021700	0.304000	0.106300
O111	O11	0.330400	0.341600	0.215900
O121	O12	0.395600	0.334900	0.123700
O131	O13	0.808500	0.653300	0.209800
O141	O14	0.962900	0.649100	0.285000
O151	O15	0.317100	0.685200	0.288000
O161	O16	0.476900	0.621300	0.223000
C221	C22	0.047200	0.612500	0.126900
H171	H17	0.937100	0.604900	0.121400
H181	H18	0.085700	0.670700	0.100000
C231	C23	0.125700	0.497000	0.116900
H191	H19	0.155300	0.487900	0.076200
C241	C24	0.267900	0.503500	0.156200
H201	H20	0.345200	0.551500	0.136600
C251	C25	0.214400	0.569900	0.210800
H211	H21	0.169800	0.512300	0.237400
C261	C26	0.083200	0.648600	0.190000
H221	H22	0.122200	0.728900	0.189000
C271	C27	0.015700	0.395900	0.136600
C281	C28	0.335200	0.383900	0.165200
C291	C29	0.343200	0.629100	0.242500
C301	C30	0.942600	0.647000	0.229800
C311	C31	0.315600	0.061600	0.112900
H231	H23	0.279300	0.134500	0.101600
C321	C32	0.326100	0.973900	0.070300
H241	H24	0.297400	0.988600	0.032100
C331	C33	0.379800	0.866100	0.086700
C341	C34	0.420400	0.848200	0.143300
H251	H25	0.457300	0.776000	0.155400
C351	C35	0.405600	0.940000	0.182600
H261	H26	0.432700	0.927100	0.221100
C361	C36	0.402400	0.760100	0.046400
H271	H27	0.460300	0.697700	0.060200
C371	C37	0.348600	0.753100	0.997500
H281	H28	0.295800	0.816800	0.982400
C381	C38	0.364500	0.647400	0.961600
C391	C39	0.304200	0.648700	0.906000
H291	H29	0.257600	0.715600	0.891400
C401	C40	0.314500	0.549000	0.872400
H301	H30	0.279900	0.553400	0.834300
C411	C41	0.427700	0.446200	0.946900
H311	H31	0.470900	0.377600	0.961000
C421	C42	0.425300	0.542500	0.984000
H321	H32	0.462200	0.537800	0.021800
Zn51	Zn5	0.847710	0.325960	0.772040
Zn61	Zn6	0.366960	0.290670	0.841150
N51	N5	0.853600	0.453000	0.832600
N61	N6	0.871600	0.055700	0.108900
O171	O17	0.433300	0.101400	0.819900
O181	O18	0.521700	0.196000	0.893700
O191	O19	0.830400	0.158400	0.784100
O201	O20	0.895600	0.165100	0.876300
O211	O21	0.308500	0.846700	0.790200
O221	O22	0.462900	0.850900	0.715000
O231	O23	0.817100	0.814800	0.712000
O241	O24	0.976900	0.878700	0.777000
C431	C43	0.547200	0.887500	0.873100
H331	H33	0.437100	0.895100	0.878600
H341	H34	0.585700	0.829300	0.900000
C441	C44	0.625700	0.003000	0.883100
H351	H35	0.655300	0.012100	0.923800
C451	C45	0.767900	0.996500	0.843800
H361	H36	0.845200	0.948500	0.863400
C461	C46	0.714400	0.930100	0.789200
H371	H37	0.669800	0.987700	0.762600
C471	C47	0.583200	0.851400	0.810000
H381	H38	0.622200	0.771100	0.811000
C481	C48	0.515700	0.104100	0.863400
C491	C49	0.835200	0.116100	0.834800
C501	C50	0.843200	0.870900	0.757500
C511	C51	0.442600	0.853000	0.770200
C521	C52	0.815600	0.438400	0.887100
H391	H39	0.779300	0.365500	0.898400
C531	C53	0.826100	0.526100	0.929700
H401	H40	0.797400	0.511400	0.967900
C541	C54	0.879800	0.633900	0.913300
C551	C55	0.920400	0.651800	0.856700
H411	H41	0.957300	0.724000	0.844600
C561	C56	0.905600	0.560000	0.817400
H421	H42	0.932700	0.572900	0.778900
C571	C57	0.902400	0.739900	0.953600
H431	H43	0.960300	0.802300	0.939800
C581	C58	0.848600	0.746900	0.002500
H441	H44	0.795800	0.683200	0.017600
C591	C59	0.864500	0.852600	0.038400
C601	C60	0.804200	0.851300	0.094000
H451	H45	0.757600	0.784400	0.108600
C611	C61	0.814500	0.951000	0.127600
H461	H46	0.779900	0.946600	0.165700
C621	C62	0.927700	0.053800	0.053100
H471	H47	0.970900	0.122400	0.039000
C631	C63	0.925300	0.957500	0.016000
H481	H48	0.962200	0.962200	0.978200
Zn71	Zn7	0.652290	0.674040	0.272040
Zn81	Zn8	0.133040	0.709330	0.341150
N71	N7	0.646400	0.547000	0.332600
N81	N8	0.628400	0.944300	0.608900
O251	O25	0.066700	0.898600	0.319900
O261	O26	0.978300	0.804000	0.393700
O271	O27	0.669600	0.841600	0.284100
O281	O28	0.604400	0.834900	0.376300
O291	O29	0.191500	0.153300	0.290200
O301	O30	0.037100	0.149100	0.215000
O311	O31	0.682900	0.185200	0.212000
O321	O32	0.523100	0.121300	0.277000
C641	C64	0.952800	0.112500	0.373100
H491	H49	0.062900	0.104900	0.378600
H501	H50	0.914300	0.170700	0.400000
C651	C65	0.874300	0.997000	0.383100
H511	H51	0.844700	0.987900	0.423800
C661	C66	0.732100	0.003500	0.343800
H521	H52	0.654800	0.051500	0.363400
C671	C67	0.785600	0.069900	0.289200
H531	H53	0.830200	0.012300	0.262600
C681	C68	0.916800	0.148600	0.310000
H541	H54	0.877800	0.228900	0.311000
C691	C69	0.984300	0.895900	0.363400
C701	C70	0.664800	0.883900	0.334800
C711	C71	0.656800	0.129100	0.257500
C721	C72	0.057400	0.147000	0.270200
C731	C73	0.684400	0.561600	0.387100
H551	H55	0.720700	0.634500	0.398400
C741	C74	0.673900	0.473900	0.429700
H561	H56	0.702600	0.488600	0.467900
C751	C75	0.620200	0.366100	0.413300
C761	C76	0.579600	0.348200	0.356700
H571	H57	0.542700	0.276000	0.344600
C771	C77	0.594400	0.440000	0.317400
H581	H58	0.567300	0.427100	0.278900
C781	C78	0.597600	0.260100	0.453600
H591	H59	0.539700	0.197700	0.439800
C791	C79	0.651400	0.253100	0.502500
H601	H60	0.704200	0.316800	0.517600
C801	C80	0.635500	0.147400	0.538400
C811	C81	0.695800	0.148700	0.594000
H611	H61	0.742400	0.215600	0.608600
C821	C82	0.685500	0.049000	0.627600
H621	H62	0.720100	0.053400	0.665700
C831	C83	0.572300	0.946200	0.553100
H631	H63	0.529100	0.877600	0.539000
C841	C84	0.574700	0.042500	0.516000
H641	H64	0.537800	0.037800	0.478200
