data_YIKLUZ_SL_part_PM
_symmetry_space_group_name_H-M	'P1'
_cell_length_a	9.885000
_cell_length_b	10.020000
_cell_length_c	16.438000
_cell_angle_alpha	90.000000
_cell_angle_beta	90.000000
_cell_angle_gamma	90.000000
_symmetry_Int_Tables_number 1

loop_
_symmetry_equiv_pos_as_xyz
'x,y,z'

loop_
_atom_site_label
_atom_site_type_symbol
_atom_site_fract_x
_atom_site_fract_y
_atom_site_fract_z
Zn11	Zn1	0.143800	0.596600	0.296650
P21	P2	0.427100	0.637300	0.212800
C31	C3	0.359000	0.588000	0.117800
C41	C4	0.416000	0.659000	0.045200
C51	C5	0.139000	0.611000	0.461600
O61	O6	0.338000	0.581400	0.279800
O71	O7	0.071100	0.417400	0.280900
O81	O8	0.066400	0.710700	0.212400
O91	O9	0.084000	0.666000	0.401300
O101	O10	0.227000	0.526000	0.458600
H111	H11	0.744980	0.395090	0.380820
H121	H12	0.878730	0.522900	0.392140
H131	H13	0.030610	0.353670	0.454490
H141	H14	0.891780	0.230000	0.450380
Zn151	Zn15	0.356200	0.903400	0.296650
P161	P16	0.072900	0.862700	0.212800
C171	C17	0.141000	0.912000	0.117800
C181	C18	0.084000	0.841000	0.045200
C191	C19	0.361000	0.889000	0.461600
O201	O20	0.162000	0.918600	0.279800
O211	O21	0.428900	0.082600	0.280900
O221	O22	0.433600	0.789300	0.212400
O231	O23	0.416000	0.834000	0.401300
O241	O24	0.273000	0.974000	0.458600
H251	H25	0.755020	0.104910	0.380820
H261	H26	0.621270	0.977100	0.392140
H271	H27	0.469390	0.146330	0.454490
H281	H28	0.608220	0.270000	0.450380
Zn291	Zn29	0.856200	0.096600	0.203350
P301	P30	0.572900	0.137300	0.287200
C311	C31	0.641000	0.088000	0.382200
C321	C32	0.584000	0.159000	0.454800
C331	C33	0.861000	0.111000	0.038400
O341	O34	0.662000	0.081400	0.220200
O351	O35	0.928900	0.917400	0.219100
O361	O36	0.933600	0.210700	0.287600
O371	O37	0.916000	0.166000	0.098700
O381	O38	0.773000	0.026000	0.041400
H391	H39	0.255020	0.895090	0.119180
H401	H40	0.121270	0.022900	0.107860
H411	H41	0.969390	0.853670	0.045510
H421	H42	0.108220	0.730000	0.049620
Zn431	Zn43	0.643800	0.403400	0.203350
P441	P44	0.927100	0.362700	0.287200
C451	C45	0.859000	0.412000	0.382200
C461	C46	0.916000	0.341000	0.454800
C471	C47	0.639000	0.389000	0.038400
O481	O48	0.838000	0.418600	0.220200
O491	O49	0.571100	0.582600	0.219100
O501	O50	0.566400	0.289300	0.287600
O511	O51	0.584000	0.334000	0.098700
O521	O52	0.727000	0.474000	0.041400
H531	H53	0.244980	0.604910	0.119180
H541	H54	0.378730	0.477100	0.107860
H551	H55	0.530610	0.646330	0.045510
H561	H56	0.391780	0.770000	0.049620
Zn571	Zn57	0.856200	0.403400	0.703350
P581	P58	0.572900	0.362700	0.787200
C591	C59	0.641000	0.412000	0.882200
C601	C60	0.584000	0.341000	0.954800
C611	C61	0.861000	0.389000	0.538400
O621	O62	0.662000	0.418600	0.720200
O631	O63	0.928900	0.582600	0.719100
O641	O64	0.933600	0.289300	0.787600
O651	O65	0.916000	0.334000	0.598700
O661	O66	0.773000	0.474000	0.541400
H671	H67	0.255020	0.604910	0.619180
H681	H68	0.121270	0.477100	0.607860
H691	H69	0.969390	0.646330	0.545510
H701	H70	0.108220	0.770000	0.549620
Zn711	Zn71	0.643800	0.096600	0.703350
P721	P72	0.927100	0.137300	0.787200
C731	C73	0.859000	0.088000	0.882200
C741	C74	0.916000	0.159000	0.954800
C751	C75	0.639000	0.111000	0.538400
O761	O76	0.838000	0.081400	0.720200
O771	O77	0.571100	0.917400	0.719100
O781	O78	0.566400	0.210700	0.787600
O791	O79	0.584000	0.166000	0.598700
O801	O80	0.727000	0.026000	0.541400
H811	H81	0.244980	0.895090	0.619180
H821	H82	0.378730	0.022900	0.607860
H831	H83	0.530610	0.853670	0.545510
H841	H84	0.391780	0.730000	0.549620
Zn851	Zn85	0.143800	0.903400	0.796650
P861	P86	0.427100	0.862700	0.712800
C871	C87	0.359000	0.912000	0.617800
C881	C88	0.416000	0.841000	0.545200
C891	C89	0.139000	0.889000	0.961600
O901	O90	0.338000	0.918600	0.779800
O911	O91	0.071100	0.082600	0.780900
O921	O92	0.066400	0.789300	0.712400
O931	O93	0.084000	0.834000	0.901300
O941	O94	0.227000	0.974000	0.958600
H951	H95	0.744980	0.104910	0.880820
H961	H96	0.878730	0.977100	0.892140
H971	H97	0.030610	0.146330	0.954490
H981	H98	0.891780	0.270000	0.950380
Zn991	Zn99	0.356200	0.596600	0.796650
P1001	P100	0.072900	0.637300	0.712800
C1011	C101	0.141000	0.588000	0.617800
C1021	C102	0.084000	0.659000	0.545200
C1031	C103	0.361000	0.611000	0.961600
O1041	O104	0.162000	0.581400	0.779800
O1051	O105	0.428900	0.417400	0.780900
O1061	O106	0.433600	0.710700	0.712400
O1071	O107	0.416000	0.666000	0.901300
O1081	O108	0.273000	0.526000	0.958600
H1091	H109	0.755020	0.395090	0.880820
H1101	H110	0.621270	0.522900	0.892140
H1111	H111	0.469390	0.353670	0.954490
H1121	H112	0.608220	0.230000	0.950380
