data_YILJAG_clean_PM
_symmetry_space_group_name_H-M	'P1'
_cell_length_a	11.558500
_cell_length_b	11.558500
_cell_length_c	25.819000
_cell_angle_alpha	90.000000
_cell_angle_beta	90.000000
_cell_angle_gamma	90.000000
_symmetry_Int_Tables_number 1

loop_
_symmetry_equiv_pos_as_xyz
'x,y,z'

loop_
_atom_site_label
_atom_site_type_symbol
_atom_site_fract_x
_atom_site_fract_y
_atom_site_fract_z
Zn11	Zn1	0.901220	0.098780	0.791860
Zn21	Zn2	0.098780	0.901220	0.791860
Zn31	Zn3	0.901220	0.901220	0.291860
Zn41	Zn4	0.098780	0.098780	0.291860
Zn51	Zn5	0.098780	0.098780	0.708140
Zn61	Zn6	0.901220	0.901220	0.708140
Zn71	Zn7	0.098780	0.901220	0.208140
Zn81	Zn8	0.901220	0.098780	0.208140
H11	H1	0.679300	0.176100	0.839700
H21	H2	0.562000	0.209700	0.810400
H31	H3	0.562900	0.105500	0.851200
H41	H4	0.320700	0.823900	0.839700
H51	H5	0.438000	0.790300	0.810400
H61	H6	0.437100	0.894500	0.851200
H71	H7	0.823900	0.679300	0.339700
H81	H8	0.790300	0.562000	0.310400
H91	H9	0.894500	0.562900	0.351200
H101	H10	0.176100	0.320700	0.339700
H111	H11	0.209700	0.438000	0.310400
H121	H12	0.105500	0.437100	0.351200
H131	H13	0.320700	0.176100	0.660300
H141	H14	0.438000	0.209700	0.689600
H151	H15	0.437100	0.105500	0.648800
H161	H16	0.679300	0.823900	0.660300
H171	H17	0.562000	0.790300	0.689600
H181	H18	0.562900	0.894500	0.648800
H191	H19	0.176100	0.679300	0.160300
H201	H20	0.209700	0.562000	0.189600
H211	H21	0.105500	0.562900	0.148800
H221	H22	0.823900	0.320700	0.160300
H231	H23	0.790300	0.438000	0.189600
H241	H24	0.894500	0.437100	0.148800
H251	H25	0.320700	0.823900	0.160300
H261	H26	0.438000	0.790300	0.189600
H271	H27	0.437100	0.894500	0.148800
H281	H28	0.679300	0.176100	0.160300
H291	H29	0.562000	0.209700	0.189600
H301	H30	0.562900	0.105500	0.148800
H311	H31	0.176100	0.320700	0.660300
H321	H32	0.209700	0.438000	0.689600
H331	H33	0.105500	0.437100	0.648800
H341	H34	0.823900	0.679300	0.660300
H351	H35	0.790300	0.562000	0.689600
H361	H36	0.894500	0.562900	0.648800
H371	H37	0.679300	0.823900	0.339700
H381	H38	0.562000	0.790300	0.310400
H391	H39	0.562900	0.894500	0.351200
H401	H40	0.320700	0.176100	0.339700
H411	H41	0.438000	0.209700	0.310400
H421	H42	0.437100	0.105500	0.351200
H431	H43	0.823900	0.320700	0.839700
H441	H44	0.790300	0.438000	0.810400
H451	H45	0.894500	0.437100	0.851200
H461	H46	0.176100	0.679300	0.839700
H471	H47	0.209700	0.562000	0.810400
H481	H48	0.105500	0.562900	0.851200
H491	H49	0.876300	0.123700	0.955600
H501	H50	0.123700	0.876300	0.955600
H511	H51	0.876300	0.876300	0.455600
H521	H52	0.123700	0.123700	0.455600
H531	H53	0.123700	0.123700	0.544400
H541	H54	0.876300	0.876300	0.544400
H551	H55	0.123700	0.876300	0.044400
H561	H56	0.876300	0.123700	0.044400
C11	C1	0.636800	0.063300	0.782190
C21	C2	0.607800	0.145700	0.824500
C31	C3	0.363200	0.936700	0.782190
C41	C4	0.392200	0.854300	0.824500
C51	C5	0.936700	0.636800	0.282190
C61	C6	0.854300	0.607800	0.324500
C71	C7	0.063300	0.363200	0.282190
C81	C8	0.145700	0.392200	0.324500
C91	C9	0.363200	0.063300	0.717810
C101	C10	0.392200	0.145700	0.675500
C111	C11	0.636800	0.936700	0.717810
C121	C12	0.607800	0.854300	0.675500
C131	C13	0.063300	0.636800	0.217810
C141	C14	0.145700	0.607800	0.175500
C151	C15	0.936700	0.363200	0.217810
C161	C16	0.854300	0.392200	0.175500
C171	C17	0.363200	0.936700	0.217810
C181	C18	0.392200	0.854300	0.175500
C191	C19	0.636800	0.063300	0.217810
C201	C20	0.607800	0.145700	0.175500
C211	C21	0.063300	0.363200	0.717810
C221	C22	0.145700	0.392200	0.675500
C231	C23	0.936700	0.636800	0.717810
C241	C24	0.854300	0.607800	0.675500
C251	C25	0.636800	0.936700	0.282190
C261	C26	0.607800	0.854300	0.324500
C271	C27	0.363200	0.063300	0.282190
C281	C28	0.392200	0.145700	0.324500
C291	C29	0.936700	0.363200	0.782190
C301	C30	0.854300	0.392200	0.824500
C311	C31	0.063300	0.636800	0.782190
C321	C32	0.145700	0.607800	0.824500
C331	C33	0.928200	0.071800	0.973900
C341	C34	0.071800	0.928200	0.973900
C351	C35	0.928200	0.928200	0.473900
C361	C36	0.071800	0.071800	0.473900
C371	C37	0.071800	0.071800	0.526100
C381	C38	0.928200	0.928200	0.526100
C391	C39	0.071800	0.928200	0.026100
C401	C40	0.928200	0.071800	0.026100
C411	C41	0.000000	0.000000	0.888200
C421	C42	0.000000	0.000000	0.945500
C431	C43	0.000000	0.000000	0.388200
C441	C44	0.000000	0.000000	0.445500
C451	C45	0.000000	0.000000	0.611800
C461	C46	0.000000	0.000000	0.554500
C471	C47	0.000000	0.000000	0.111800
C481	C48	0.000000	0.000000	0.054500
C491	C49	0.563800	0.000000	0.750000
C501	C50	0.436200	0.000000	0.750000
C511	C51	0.000000	0.563800	0.250000
C521	C52	0.000000	0.436200	0.250000
C531	C53	0.436200	0.000000	0.250000
C541	C54	0.563800	0.000000	0.250000
C551	C55	0.000000	0.436200	0.750000
C561	C56	0.000000	0.563800	0.750000
N11	N1	0.747600	0.039500	0.770000
N21	N2	0.252400	0.960500	0.770000
N31	N3	0.960500	0.747600	0.270000
N41	N4	0.039500	0.252400	0.270000
N51	N5	0.252400	0.039500	0.730000
N61	N6	0.747600	0.960500	0.730000
N71	N7	0.039500	0.747600	0.230000
N81	N8	0.960500	0.252400	0.230000
N91	N9	0.252400	0.960500	0.230000
N101	N10	0.747600	0.039500	0.230000
N111	N11	0.039500	0.252400	0.730000
N121	N12	0.960500	0.747600	0.730000
N131	N13	0.747600	0.960500	0.270000
N141	N14	0.252400	0.039500	0.270000
N151	N15	0.960500	0.252400	0.770000
N161	N16	0.039500	0.747600	0.770000
O11	O1	0.930800	0.069200	0.865260
O21	O2	0.069200	0.930800	0.865260
O31	O3	0.930800	0.930800	0.365260
O41	O4	0.069200	0.069200	0.365260
O51	O5	0.069200	0.069200	0.634740
O61	O6	0.930800	0.930800	0.634740
O71	O7	0.069200	0.930800	0.134740
O81	O8	0.930800	0.069200	0.134740
O91	O9	0.000000	0.000000	0.750000
O101	O10	0.000000	0.000000	0.250000
