data_YILJUA_clean_PM
_symmetry_space_group_name_H-M	'P1'
_cell_length_a	13.415800
_cell_length_b	21.855100
_cell_length_c	14.477900
_cell_angle_alpha	90.000000
_cell_angle_beta	92.291000
_cell_angle_gamma	90.000000
_symmetry_Int_Tables_number 1

loop_
_symmetry_equiv_pos_as_xyz
'x,y,z'

loop_
_atom_site_label
_atom_site_type_symbol
_atom_site_fract_x
_atom_site_fract_y
_atom_site_fract_z
Cd11	Cd1	0.675010	0.019220	0.826150
O11	O1	0.672700	0.987170	0.980000
O21	O2	0.794000	0.948820	0.745830
O31	O3	0.746800	0.038780	0.692670
C11	C1	0.759600	0.008780	0.999800
C21	C2	0.535300	0.115280	0.861800
C31	C3	0.837900	0.975370	0.592900
O41	O4	0.026800	0.429720	0.605810
O51	O5	0.620900	0.118930	0.833800
C41	C4	0.476200	0.174740	0.868900
C51	C5	0.807100	0.992610	0.092300
C61	C6	0.791000	0.988520	0.683600
O61	O6	0.950800	0.935390	0.337190
O71	O7	0.492800	0.067200	0.881700
C71	C7	0.955700	0.983200	0.190100
H11	H1	0.024100	0.988600	0.199700
C81	C8	0.901000	0.957090	0.257400
C91	C9	0.753100	0.965920	0.161200
H21	H2	0.684900	0.959600	0.151400
C101	C10	0.880300	0.919250	0.575600
H31	H3	0.884300	0.889900	0.622200
C111	C11	0.834500	0.019300	0.523500
H41	H4	0.807300	0.057600	0.534800
C121	C12	0.798700	0.948660	0.243900
H51	H5	0.761500	0.931600	0.290300
O81	O8	0.805700	0.038590	0.942550
C131	C13	0.098100	0.403370	0.751100
C141	C14	0.374200	0.282100	0.894300
C151	C15	0.513800	0.229960	0.839600
H61	H6	0.574600	0.230800	0.811000
O91	O9	0.940800	0.452310	0.730560
C161	C16	0.333100	0.227700	0.921300
H71	H7	0.270800	0.227100	0.947200
C171	C17	0.916900	0.905930	0.489500
H81	H8	0.945000	0.867900	0.478000
C181	C18	0.871100	0.006500	0.437700
H91	H9	0.868800	0.036000	0.391400
O101	O10	0.330400	0.336700	0.919900
C191	C19	0.014300	0.431360	0.691600
C201	C20	0.266500	0.367100	0.766200
H101	H10	0.327700	0.359700	0.740400
C211	C21	0.463300	0.283260	0.852000
H111	H11	0.489400	0.320100	0.831700
C221	C22	0.188400	0.390980	0.713300
H121	H12	0.196800	0.398900	0.651000
C231	C23	0.908800	0.001500	0.107900
H131	H13	0.945800	0.019900	0.062600
C241	C24	0.911000	0.949800	0.421700
C251	C25	0.164300	0.367000	0.897000
H141	H14	0.156400	0.359400	0.959500
C261	C26	0.252500	0.354400	0.857700
C271	C27	0.384100	0.174490	0.910200
H151	H15	0.357400	0.137800	0.930200
C281	C28	0.087100	0.391000	0.843300
H161	H16	0.026400	0.399000	0.869700
Cd21	Cd2	0.824990	0.519220	0.673850
O111	O11	0.827300	0.487170	0.520000
O121	O12	0.706000	0.448820	0.754170
O131	O13	0.753200	0.538780	0.807330
C291	C29	0.740400	0.508780	0.500200
C301	C30	0.964700	0.615280	0.638200
C311	C31	0.662100	0.475370	0.907100
O141	O14	0.473200	0.929720	0.894190
O151	O15	0.879100	0.618930	0.666200
C321	C32	0.023800	0.674740	0.631100
C331	C33	0.692900	0.492610	0.407700
C341	C34	0.709000	0.488520	0.816400
O161	O16	0.549200	0.435390	0.162810
O171	O17	0.007200	0.567200	0.618300
C351	C35	0.544300	0.483200	0.309900
H171	H17	0.475900	0.488600	0.300300
C361	C36	0.599000	0.457090	0.242600
C371	C37	0.746900	0.465920	0.338800
H181	H18	0.815100	0.459600	0.348600
C381	C38	0.619700	0.419250	0.924400
H191	H19	0.615700	0.389900	0.877800
C391	C39	0.665500	0.519300	0.976500
H201	H20	0.692700	0.557600	0.965200
C401	C40	0.701300	0.448660	0.256100
H211	H21	0.738500	0.431600	0.209700
O181	O18	0.694300	0.538590	0.557450
C411	C41	0.401900	0.903370	0.748900
C421	C42	0.125800	0.782100	0.605700
C431	C43	0.986200	0.729960	0.660400
H221	H22	0.925400	0.730800	0.689000
O191	O19	0.559200	0.952310	0.769440
C441	C44	0.166900	0.727700	0.578700
H231	H23	0.229200	0.727100	0.552800
C451	C45	0.583100	0.405930	0.010500
H241	H24	0.555000	0.367900	0.022000
C461	C46	0.628900	0.506500	0.062300
H251	H25	0.631200	0.536000	0.108600
O201	O20	0.169600	0.836700	0.580100
C471	C47	0.485700	0.931360	0.808400
C481	C48	0.233500	0.867100	0.733800
H261	H26	0.172300	0.859700	0.759600
C491	C49	0.036700	0.783260	0.648000
H271	H27	0.010600	0.820100	0.668300
C501	C50	0.311600	0.890980	0.786700
H281	H28	0.303200	0.898900	0.849000
C511	C51	0.591200	0.501500	0.392100
H291	H29	0.554200	0.519900	0.437400
C521	C52	0.589000	0.449800	0.078300
C531	C53	0.335700	0.867000	0.603000
H301	H30	0.343600	0.859400	0.540500
C541	C54	0.247500	0.854400	0.642300
C551	C55	0.115900	0.674490	0.589800
H311	H31	0.142600	0.637800	0.569800
C561	C56	0.412900	0.891000	0.656700
H321	H32	0.473600	0.899000	0.630300
Cd31	Cd3	0.324990	0.980780	0.173850
O211	O21	0.327300	0.012830	0.020000
O221	O22	0.206000	0.051180	0.254170
O231	O23	0.253200	0.961220	0.307330
C571	C57	0.240400	0.991220	0.000200
C581	C58	0.464700	0.884720	0.138200
C591	C59	0.162100	0.024630	0.407100
O241	O24	0.973200	0.570280	0.394190
O251	O25	0.379100	0.881070	0.166200
C601	C60	0.523800	0.825260	0.131100
C611	C61	0.192900	0.007390	0.907700
C621	C62	0.209000	0.011480	0.316400
O261	O26	0.049200	0.064610	0.662810
O271	O27	0.507200	0.932800	0.118300
C631	C63	0.044300	0.016800	0.809900
H331	H33	0.975900	0.011400	0.800300
C641	C64	0.099000	0.042910	0.742600
C651	C65	0.246900	0.034080	0.838800
H341	H34	0.315100	0.040400	0.848600
C661	C66	0.119700	0.080750	0.424400
H351	H35	0.115700	0.110100	0.377800
C671	C67	0.165500	0.980700	0.476500
H361	H36	0.192700	0.942400	0.465200
C681	C68	0.201300	0.051340	0.756100
H371	H37	0.238500	0.068400	0.709700
O281	O28	0.194300	0.961410	0.057450
C691	C69	0.901900	0.596630	0.248900
C701	C70	0.625800	0.717900	0.105700
C711	C71	0.486200	0.770040	0.160400
H381	H38	0.425400	0.769200	0.189000
O291	O29	0.059200	0.547690	0.269440
C721	C72	0.666900	0.772300	0.078700
H391	H39	0.729200	0.772900	0.052800
C731	C73	0.083100	0.094070	0.510500
H401	H40	0.055000	0.132100	0.522000
C741	C74	0.128900	0.993500	0.562300
H411	H41	0.131200	0.964000	0.608600
O301	O30	0.669600	0.663300	0.080100
C751	C75	0.985700	0.568640	0.308400
C761	C76	0.733500	0.632900	0.233800
H421	H42	0.672300	0.640300	0.259600
C771	C77	0.536700	0.716740	0.148000
H431	H43	0.510600	0.679900	0.168300
C781	C78	0.811600	0.609020	0.286700
H441	H44	0.803200	0.601100	0.349000
C791	C79	0.091200	0.998500	0.892100
H451	H45	0.054200	0.980100	0.937400
C801	C80	0.089000	0.050200	0.578300
C811	C81	0.835700	0.633000	0.103000
H461	H46	0.843600	0.640600	0.040500
C821	C82	0.747500	0.645600	0.142300
C831	C83	0.615900	0.825510	0.089800
H471	H47	0.642600	0.862200	0.069800
C841	C84	0.912900	0.609000	0.156700
H481	H48	0.973600	0.601000	0.130300
Cd41	Cd4	0.175010	0.480780	0.326150
O311	O31	0.172700	0.512830	0.480000
O321	O32	0.294000	0.551180	0.245830
O331	O33	0.246800	0.461220	0.192670
C851	C85	0.259600	0.491220	0.499800
C861	C86	0.035300	0.384720	0.361800
C871	C87	0.337900	0.524630	0.092900
O341	O34	0.526800	0.070280	0.105810
O351	O35	0.120900	0.381070	0.333800
C881	C88	0.976200	0.325260	0.368900
C891	C89	0.307100	0.507390	0.592300
C901	C90	0.291000	0.511480	0.183600
O361	O36	0.450800	0.564610	0.837190
O371	O37	0.992800	0.432800	0.381700
C911	C91	0.455700	0.516800	0.690100
H491	H49	0.524100	0.511400	0.699700
C921	C92	0.401000	0.542910	0.757400
C931	C93	0.253100	0.534080	0.661200
H501	H50	0.184900	0.540400	0.651400
C941	C94	0.380300	0.580750	0.075600
H511	H51	0.384300	0.610100	0.122200
C951	C95	0.334500	0.480700	0.023500
H521	H52	0.307300	0.442400	0.034800
C961	C96	0.298700	0.551340	0.743900
H531	H53	0.261500	0.568400	0.790300
O381	O38	0.305700	0.461410	0.442550
C971	C97	0.598100	0.096630	0.251100
C981	C98	0.874200	0.217900	0.394300
C991	C99	0.013800	0.270040	0.339600
H541	H54	0.074600	0.269200	0.311000
O391	O39	0.440800	0.047690	0.230560
C1001	C100	0.833100	0.272300	0.421300
H551	H55	0.770800	0.272900	0.447200
C1011	C101	0.416900	0.594070	0.989500
H561	H56	0.445000	0.632100	0.978000
C1021	C102	0.371100	0.493500	0.937700
H571	H57	0.368800	0.464000	0.891400
O401	O40	0.830400	0.163300	0.419900
C1031	C103	0.514300	0.068640	0.191600
C1041	C104	0.766500	0.132900	0.266200
H581	H58	0.827700	0.140300	0.240400
C1051	C105	0.963300	0.216740	0.352000
H591	H59	0.989400	0.179900	0.331700
C1061	C106	0.688400	0.109020	0.213300
H601	H60	0.696800	0.101100	0.151000
C1071	C107	0.408800	0.498500	0.607900
H611	H61	0.445800	0.480100	0.562600
C1081	C108	0.411000	0.550200	0.921700
C1091	C109	0.664300	0.133000	0.397000
H621	H62	0.656400	0.140600	0.459500
C1101	C110	0.752500	0.145600	0.357700
C1111	C111	0.884100	0.325510	0.410200
H631	H63	0.857400	0.362200	0.430200
C1121	C112	0.587100	0.109000	0.343300
H641	H64	0.526400	0.101000	0.369700
Cd51	Cd5	0.500000	0.000000	0.000000
Cd61	Cd6	0.000000	0.500000	0.500000
