data_YILKAH_clean_PM
_symmetry_space_group_name_H-M	'P1'
_cell_length_a	15.139400
_cell_length_b	16.567000
_cell_length_c	17.868000
_cell_angle_alpha	95.399000
_cell_angle_beta	97.074000
_cell_angle_gamma	102.332000
_symmetry_Int_Tables_number 1

loop_
_symmetry_equiv_pos_as_xyz
'x,y,z'

loop_
_atom_site_label
_atom_site_type_symbol
_atom_site_fract_x
_atom_site_fract_y
_atom_site_fract_z
Cd11	Cd1	0.313970	0.017640	0.366230
Cd21	Cd2	0.868370	0.634160	0.074360
C11	C1	0.573900	0.686800	0.141800
H11	H1	0.577700	0.634800	0.155700
C21	C2	0.513800	0.385400	0.615200
C31	C3	0.768900	0.477300	0.772400
H21	H2	0.826200	0.468700	0.765400
C41	C4	0.494900	0.720400	0.152900
H31	H3	0.446200	0.688800	0.172100
C51	C5	0.694100	0.457100	0.713200
H41	H4	0.700400	0.429700	0.667000
C61	C6	0.593100	0.501300	0.794700
H51	H5	0.534500	0.503900	0.803500
C71	C7	0.613200	0.476900	0.722300
C81	C8	0.472100	0.388100	0.541000
H61	H6	0.467400	0.438900	0.524800
C91	C9	0.532500	0.311100	0.632400
H71	H7	0.569200	0.310000	0.677800
C101	C10	0.492000	0.797400	0.135600
C111	C11	0.661700	0.519500	0.847200
H81	H8	0.652600	0.541200	0.894800
C121	C12	0.300200	0.730800	0.079600
H91	H9	0.339300	0.711100	0.050000
C131	C13	0.558900	0.839700	0.104300
H101	H10	0.556300	0.892600	0.092000
C141	C14	0.642200	0.732800	0.110600
C151	C15	0.752400	0.509300	0.838800
C161	C16	0.079600	0.547600	0.718500
H111	H11	0.092800	0.499300	0.696400
C171	C17	0.819900	0.530500	0.907600
C181	C18	0.437500	0.314000	0.491100
H121	H12	0.405700	0.315600	0.443500
C191	C19	0.064200	0.608000	0.674400
H131	H13	0.065200	0.599800	0.622300
C201	C20	0.210000	0.698300	0.065300
H141	H14	0.186900	0.653700	0.027300
C211	C21	0.072200	0.801800	0.557400
H151	H15	0.010000	0.794100	0.540400
C221	C22	0.093200	0.491500	0.841800
C231	C23	0.335000	0.794700	0.139600
C241	C24	0.497800	0.237300	0.583300
H161	H16	0.506400	0.186900	0.598200
C251	C25	0.186700	0.794600	0.165800
H171	H17	0.147200	0.816100	0.193700
C261	C26	0.726700	0.700300	0.096500
C271	C27	0.450500	0.239400	0.512300
C281	C28	0.151700	0.730100	0.105900
C291	C29	0.075400	0.557900	0.795600
C301	C30	0.047400	0.680800	0.707300
C311	C31	0.054200	0.697600	0.085800
C321	C32	0.276600	0.824800	0.182500
H181	H18	0.300000	0.866300	0.223200
C331	C33	0.043700	0.691700	0.785400
H191	H19	0.032800	0.740900	0.808000
C341	C34	0.099900	0.774700	0.622200
C351	C35	0.632200	0.807900	0.089600
H201	H20	0.676200	0.838200	0.064700
C361	C36	0.056200	0.630100	0.828500
H211	H21	0.051700	0.636600	0.880100
C371	C37	0.135600	0.841300	0.515500
H221	H22	0.116000	0.860400	0.470500
C381	C38	0.650100	0.045100	0.179900
H231	H23	0.659900	0.074800	0.138900
C391	C39	0.193000	0.785300	0.648900
H241	H24	0.211600	0.765800	0.694000
C401	C40	0.992200	0.049000	0.298400
H251	H25	0.017700	0.084100	0.343100
C411	C41	0.697700	0.955900	0.268900
H261	H26	0.738900	0.925200	0.286500
C421	C42	0.573800	0.046200	0.215500
H271	H27	0.532800	0.077200	0.198200
C431	C43	0.256800	0.824900	0.607700
H281	H28	0.318800	0.832900	0.625300
C441	C44	0.406800	0.159700	0.462100
C451	C45	0.298200	0.896900	0.496300
C461	C46	0.711500	0.999300	0.205900
C471	C47	0.228900	0.852500	0.540600
C481	C48	0.005700	0.948500	0.197900
H291	H29	0.040300	0.916100	0.174700
C491	C49	0.866500	0.993600	0.199900
C501	C50	0.622500	0.959300	0.304300
H301	H30	0.614900	0.932700	0.347400
C511	C51	0.916200	0.944300	0.164900
H311	H31	0.890600	0.909000	0.120400
C521	C52	0.902600	0.045900	0.266400
H321	H32	0.868000	0.078400	0.289300
C531	C53	0.557800	0.001700	0.277000
C541	C54	0.043700	0.000100	0.264400
C551	C55	0.474000	0.000100	0.311800
C561	C56	0.139300	0.003700	0.301000
O11	O1	0.555000	0.463300	0.648900
O21	O2	0.733300	0.632200	0.120900
O31	O3	0.102300	0.423600	0.809800
O41	O4	0.424100	0.833900	0.157600
O51	O5	0.803200	0.580000	0.959700
O61	O6	0.999700	0.727900	0.124800
O71	O7	0.033100	0.742200	0.665000
O81	O8	0.019600	0.641100	0.030300
O91	O9	0.367800	0.164500	0.397100
O101	O10	0.101900	0.505300	0.914000
O111	O11	0.170600	0.052400	0.360600
O121	O12	0.779700	0.737800	0.063100
O131	O13	0.266900	0.918800	0.433700
O141	O14	0.890200	0.502200	0.907000
O151	O15	0.406500	0.093400	0.487100
O161	O16	0.461300	0.962600	0.369600
O171	O17	0.186600	0.962000	0.269400
O181	O18	0.413400	0.033700	0.281000
O191	O19	0.780200	0.992000	0.163200
O201	O20	0.381300	0.908300	0.522900
Cd31	Cd3	0.686030	0.982360	0.633770
Cd41	Cd4	0.131630	0.365840	0.925640
C571	C57	0.426100	0.313200	0.858200
H331	H33	0.422300	0.365200	0.844300
C581	C58	0.486200	0.614600	0.384800
C591	C59	0.231100	0.522700	0.227600
H341	H34	0.173800	0.531300	0.234600
C601	C60	0.505100	0.279600	0.847100
H351	H35	0.553800	0.311200	0.827900
C611	C61	0.305900	0.542900	0.286800
H361	H36	0.299600	0.570300	0.333000
C621	C62	0.406900	0.498700	0.205300
H371	H37	0.465500	0.496100	0.196500
C631	C63	0.386800	0.523100	0.277700
C641	C64	0.527900	0.611900	0.459000
H381	H38	0.532600	0.561100	0.475200
C651	C65	0.467500	0.688900	0.367600
H391	H39	0.430800	0.690000	0.322200
C661	C66	0.508000	0.202600	0.864400
C671	C67	0.338300	0.480500	0.152800
H401	H40	0.347400	0.458800	0.105200
C681	C68	0.699800	0.269200	0.920400
H411	H41	0.660700	0.288900	0.950000
C691	C69	0.441100	0.160300	0.895700
H421	H42	0.443700	0.107400	0.908000
C701	C70	0.357800	0.267200	0.889400
C711	C71	0.247600	0.490700	0.161200
C721	C72	0.920400	0.452400	0.281500
H431	H43	0.907200	0.500700	0.303600
C731	C73	0.180100	0.469500	0.092400
C741	C74	0.562500	0.686000	0.508900
H441	H44	0.594300	0.684400	0.556500
C751	C75	0.935800	0.392000	0.325600
H451	H45	0.934800	0.400200	0.377700
C761	C76	0.790000	0.301700	0.934700
H461	H46	0.813100	0.346300	0.972700
C771	C77	0.927800	0.198200	0.442600
H471	H47	0.990000	0.205900	0.459600
C781	C78	0.906800	0.508500	0.158200
C791	C79	0.665000	0.205300	0.860400
C801	C80	0.502200	0.762700	0.416700
H481	H48	0.493600	0.813100	0.401800
C811	C81	0.813300	0.205400	0.834200
H491	H49	0.852800	0.183900	0.806300
C821	C82	0.273300	0.299700	0.903500
C831	C83	0.549500	0.760600	0.487700
C841	C84	0.848300	0.269900	0.894100
C851	C85	0.924600	0.442100	0.204400
C861	C86	0.952600	0.319200	0.292700
C871	C87	0.945800	0.302400	0.914200
C881	C88	0.723400	0.175200	0.817500
H501	H50	0.700000	0.133700	0.776800
C891	C89	0.956300	0.308300	0.214600
H511	H51	0.967200	0.259100	0.192000
C901	C90	0.900100	0.225300	0.377800
C911	C91	0.367800	0.192100	0.910400
H521	H52	0.323800	0.161800	0.935300
C921	C92	0.943800	0.369900	0.171500
H531	H53	0.948300	0.363400	0.119900
C931	C93	0.864400	0.158700	0.484500
H541	H54	0.884000	0.139600	0.529500
C941	C94	0.349900	0.954900	0.820100
H551	H55	0.340100	0.925200	0.861100
C951	C95	0.807000	0.214700	0.351100
H561	H56	0.788400	0.234200	0.306000
C961	C96	0.007800	0.951000	0.701600
H571	H57	0.982300	0.915900	0.656900
C971	C97	0.302300	0.044100	0.731100
H581	H58	0.261100	0.074800	0.713500
C981	C98	0.426200	0.953800	0.784500
H591	H59	0.467200	0.922800	0.801800
C991	C99	0.743200	0.175100	0.392300
H601	H60	0.681200	0.167100	0.374700
C1001	C100	0.593200	0.840300	0.537900
C1011	C101	0.701800	0.103100	0.503700
C1021	C102	0.288500	0.000700	0.794100
C1031	C103	0.771100	0.147500	0.459400
C1041	C104	0.994300	0.051500	0.802100
H611	H61	0.959700	0.083900	0.825300
C1051	C105	0.133500	0.006400	0.800100
C1061	C106	0.377500	0.040700	0.695700
H621	H62	0.385100	0.067300	0.652600
C1071	C107	0.083800	0.055700	0.835100
H631	H63	0.109400	0.091000	0.879600
C1081	C108	0.097400	0.954100	0.733600
H641	H64	0.132000	0.921600	0.710700
C1091	C109	0.442200	0.998300	0.723000
C1101	C110	0.956300	0.999900	0.735600
C1111	C111	0.526000	0.999900	0.688200
C1121	C112	0.860700	0.996300	0.699000
O211	O21	0.445000	0.536700	0.351100
O221	O22	0.266700	0.367800	0.879100
O231	O23	0.897700	0.576400	0.190200
O241	O24	0.575900	0.166100	0.842400
O251	O25	0.196800	0.420000	0.040300
O261	O26	0.000300	0.272100	0.875200
O271	O27	0.966900	0.257800	0.335000
O281	O28	0.980400	0.358900	0.969700
O291	O29	0.632200	0.835500	0.602900
O301	O30	0.898100	0.494700	0.086000
O311	O31	0.829400	0.947600	0.639400
O321	O32	0.220300	0.262200	0.936900
O331	O33	0.733100	0.081200	0.566300
O341	O34	0.109800	0.497800	0.093000
O351	O35	0.593500	0.906600	0.512900
O361	O36	0.538700	0.037400	0.630400
O371	O37	0.813400	0.038000	0.730600
O381	O38	0.586600	0.966300	0.719000
O391	O39	0.219800	0.008000	0.836800
O401	O40	0.618700	0.091700	0.477100
Cd51	Cd5	0.500000	0.000000	0.500000
Cd61	Cd6	0.000000	0.500000	0.000000
