data_YINCEF_clean_PM
_symmetry_space_group_name_H-M	'P1'
_cell_length_a	9.523700
_cell_length_b	17.672700
_cell_length_c	17.672700
_cell_angle_alpha	103.472000
_cell_angle_beta	103.799000
_cell_angle_gamma	76.200800
_symmetry_Int_Tables_number 1

loop_
_symmetry_equiv_pos_as_xyz
'x,y,z'

loop_
_atom_site_label
_atom_site_type_symbol
_atom_site_fract_x
_atom_site_fract_y
_atom_site_fract_z
Mn11	Mn1	0.935780	0.677700	0.187260
Mn21	Mn2	0.000000	0.500000	0.000000
Mn31	Mn3	0.435780	0.812740	0.322300
Mn41	Mn4	0.500000	0.000000	0.500000
Mn51	Mn5	0.564220	0.187260	0.677700
Mn61	Mn6	0.064220	0.322300	0.812740
H11	H1	0.939300	0.339100	0.128700
H21	H2	0.031000	0.979100	0.214500
H31	H3	0.188100	0.217900	0.296900
H41	H4	0.675200	0.891800	0.651800
H51	H5	0.415800	0.682900	0.485500
H61	H6	0.824800	0.651800	0.891800
H71	H7	0.181800	0.352300	0.436100
H81	H8	0.688100	0.703100	0.782100
H91	H9	0.811900	0.782100	0.703100
H101	H10	0.069400	0.708200	0.662000
H111	H11	0.681800	0.563900	0.647700
H121	H12	0.969000	0.020900	0.785500
H131	H13	0.698400	0.719800	0.467400
H141	H14	0.886100	0.090600	0.170000
H151	H15	0.613900	0.170000	0.090600
H161	H16	0.084200	0.485500	0.682900
H171	H17	0.386100	0.830000	0.909400
H181	H18	0.301600	0.280200	0.532600
H191	H19	0.322300	0.466300	0.583500
H201	H20	0.584200	0.317100	0.514500
H211	H21	0.113900	0.909400	0.830000
H221	H22	0.060700	0.660900	0.871300
H231	H23	0.930600	0.291800	0.338000
H241	H24	0.439300	0.871300	0.660900
H251	H25	0.556300	0.632200	0.345800
H261	H26	0.175200	0.348200	0.108200
H271	H27	0.822300	0.416500	0.533700
H281	H28	0.469000	0.214500	0.979100
H291	H29	0.430600	0.662000	0.708200
H301	H30	0.198400	0.532600	0.280200
H311	H31	0.569400	0.338000	0.291800
H321	H32	0.443700	0.367800	0.654200
H331	H33	0.311900	0.296900	0.217900
H341	H34	0.560700	0.128700	0.339100
H351	H35	0.318200	0.436100	0.352300
H361	H36	0.677700	0.533700	0.416500
H371	H37	0.177700	0.583500	0.466300
H381	H38	0.801600	0.467400	0.719800
H391	H39	0.915800	0.514500	0.317100
H401	H40	0.943700	0.345800	0.632200
H411	H41	0.324800	0.108200	0.348200
H421	H42	0.531000	0.785500	0.020900
H431	H43	0.056300	0.654200	0.367800
H441	H44	0.818200	0.647700	0.563900
C11	C1	0.634000	0.524470	0.649730
C21	C2	0.418700	0.466080	0.610920
C31	C3	0.205900	0.308210	0.533390
C41	C4	0.783200	0.736430	0.339970
C51	C5	0.574900	0.341110	0.407490
C61	C6	0.009100	0.610330	0.525070
C71	C7	0.508300	0.592680	0.347320
C81	C8	0.713300	0.041930	0.686270
C91	C9	0.475700	0.795210	0.906390
C101	C10	0.070000	0.671950	0.692650
C111	C11	0.573800	0.166020	0.495380
C121	C12	0.863700	0.692810	0.405790
C131	C13	0.716800	0.339970	0.736430
C141	C14	0.425100	0.658890	0.592510
C151	C15	0.024300	0.906390	0.795210
C161	C16	0.294100	0.533390	0.308210
C171	C17	0.136300	0.307190	0.594210
C181	C18	0.574700	0.215180	0.435820
C191	C19	0.434000	0.771440	0.696360
C201	C20	0.990900	0.389670	0.474930
C211	C21	0.918700	0.389080	0.533920
C221	C22	0.930000	0.328050	0.307350
C231	C23	0.866000	0.649730	0.524470
C241	C24	0.490900	0.525070	0.610330
C251	C25	0.925300	0.435820	0.215180
C261	C26	0.475900	0.229340	0.164260
C271	C27	0.844600	0.829890	0.718310
C281	C28	0.566000	0.228560	0.303640
C291	C29	0.636300	0.405790	0.692810
C301	C30	0.425300	0.784820	0.564180
C311	C31	0.933800	0.356730	0.181870
C321	C32	0.934000	0.303640	0.228560
C331	C33	0.286700	0.958070	0.313730
C341	C34	0.509100	0.474930	0.389670
C351	C35	0.155400	0.170110	0.281690
C361	C36	0.524300	0.204790	0.093610
C371	C37	0.192800	0.031390	0.286810
C381	C38	0.066000	0.696360	0.771440
C391	C39	0.008300	0.652680	0.407320
C401	C40	0.491700	0.407320	0.652680
C411	C41	0.975700	0.093610	0.204790
C421	C42	0.975900	0.835740	0.770660
C431	C43	0.363700	0.594210	0.307190
C441	C44	0.581300	0.533920	0.389080
C451	C45	0.213300	0.313730	0.958070
C461	C46	0.421200	0.705330	0.538870
C471	C47	0.566200	0.181870	0.356730
C481	C48	0.762200	0.896060	0.688740
C491	C49	0.578800	0.294670	0.461130
C501	C50	0.073800	0.504620	0.833980
C511	C51	0.283200	0.660030	0.263570
C521	C52	0.307200	0.286810	0.031390
C531	C53	0.262200	0.311260	0.103940
C541	C54	0.074700	0.564180	0.784820
C551	C55	0.134000	0.350270	0.475530
C561	C56	0.024100	0.164260	0.229340
C571	C57	0.926200	0.495380	0.166020
C581	C58	0.216800	0.263570	0.660030
C591	C59	0.081300	0.610920	0.466080
C601	C60	0.344600	0.281690	0.170110
C611	C61	0.426200	0.833980	0.504620
C621	C62	0.807200	0.968610	0.713190
C631	C63	0.991700	0.347320	0.592680
C641	C64	0.570000	0.307350	0.328050
C651	C65	0.925100	0.407490	0.341110
C661	C66	0.237800	0.103940	0.311260
C671	C67	0.655400	0.718310	0.829890
C681	C68	0.074900	0.592510	0.658890
C691	C69	0.938400	0.972550	0.767450
C701	C70	0.794100	0.691790	0.466610
C711	C71	0.524100	0.770660	0.835740
C721	C72	0.061600	0.027450	0.232550
C731	C73	0.078800	0.538870	0.705330
C741	C74	0.737800	0.688740	0.896060
C751	C75	0.921200	0.461130	0.294670
C761	C76	0.430000	0.692650	0.671950
C771	C77	0.786700	0.686270	0.041930
C781	C78	0.366000	0.475530	0.350270
C791	C79	0.705900	0.466610	0.691790
C801	C80	0.438400	0.232550	0.027450
C811	C81	0.066200	0.643270	0.818130
C821	C82	0.561600	0.767450	0.972550
C831	C83	0.692800	0.713190	0.968610
C841	C84	0.433800	0.818130	0.643270
O11	O1	0.411700	0.800200	0.433680
O21	O2	0.094700	0.364600	0.959540
O31	O3	0.405300	0.959540	0.364600
O41	O4	0.916500	0.436300	0.419360
O51	O5	0.439600	0.904450	0.531550
O61	O6	0.845300	0.344700	0.771580
O71	O7	0.743900	0.717780	0.106380
O81	O8	0.560400	0.095550	0.468450
O91	O9	0.435700	0.808390	0.775250
O101	O10	0.844700	0.738050	0.286030
O111	O11	0.416500	0.580640	0.563700
O121	O12	0.088300	0.433680	0.800200
O131	O13	0.154700	0.655300	0.228420
O141	O14	0.064300	0.775250	0.808390
O151	O15	0.243900	0.893620	0.282220
O161	O16	0.564300	0.191610	0.224750
O171	O17	0.344700	0.713970	0.261950
O181	O18	0.756100	0.106380	0.717780
O191	O19	0.083500	0.563700	0.580640
O201	O20	0.256100	0.282220	0.893620
O211	O21	0.935700	0.224750	0.191610
O221	O22	0.655300	0.286030	0.738050
O231	O23	0.911700	0.566320	0.199800
O241	O24	0.345300	0.228420	0.655300
O251	O25	0.905300	0.635400	0.040460
O261	O26	0.654700	0.771580	0.344700
O271	O27	0.060400	0.531550	0.904450
O281	O28	0.583500	0.419360	0.436300
O291	O29	0.594700	0.040460	0.635400
O301	O30	0.939600	0.468450	0.095550
O311	O31	0.588300	0.199800	0.566320
O321	O32	0.155300	0.261950	0.713970
