data_YINCUV_clean_PM
_symmetry_space_group_name_H-M	'P1'
_cell_length_a	13.102000
_cell_length_b	13.134000
_cell_length_c	25.336000
_cell_angle_alpha	93.935000
_cell_angle_beta	90.000000
_cell_angle_gamma	90.000000
_symmetry_Int_Tables_number 1

loop_
_symmetry_equiv_pos_as_xyz
'x,y,z'

loop_
_atom_site_label
_atom_site_type_symbol
_atom_site_fract_x
_atom_site_fract_y
_atom_site_fract_z
Mn11	Mn1	0.052820	0.761490	0.484830
Mn21	Mn2	0.552820	0.738510	0.015170
Mn31	Mn3	0.306160	0.471320	0.998330
Mn41	Mn4	0.500000	0.000000	0.000000
Mn51	Mn5	0.193840	0.971320	0.498330
Mn61	Mn6	0.693840	0.528680	0.001670
Mn71	Mn7	0.806160	0.028680	0.501670
Mn81	Mn8	0.947180	0.238510	0.515170
Mn91	Mn9	0.000000	0.500000	0.500000
Mn101	Mn10	0.447180	0.261490	0.984830
H11	H1	0.891800	0.039300	0.347200
H21	H2	0.648600	0.700100	0.880000
H31	H3	0.615600	0.331100	0.152700
H41	H4	0.839300	0.444600	0.143100
H51	H5	0.861700	0.149500	0.167900
H61	H6	0.468200	0.183100	0.745900
H71	H7	0.743700	0.590600	0.595500
H81	H8	0.666700	0.735800	0.790200
H91	H9	0.309700	0.996500	0.142500
H101	H10	0.814900	0.808800	0.378700
H111	H11	0.834800	0.873400	0.228600
H121	H12	0.940700	0.866100	0.825300
H131	H13	0.148600	0.799900	0.620000
H141	H14	0.361700	0.350500	0.332100
H151	H15	0.138300	0.850500	0.832100
H161	H16	0.256300	0.409400	0.404500
H171	H17	0.833300	0.235800	0.290200
H181	H18	0.732100	0.819500	0.157400
H191	H19	0.031800	0.683100	0.245900
H201	H20	0.608200	0.539300	0.847200
H211	H21	0.514400	0.947700	0.874100
H221	H22	0.160700	0.555400	0.856900
H231	H23	0.531800	0.816900	0.254100
H241	H24	0.638300	0.649500	0.667900
H251	H25	0.462500	0.770200	0.333600
H261	H26	0.267900	0.180500	0.842600
H271	H27	0.418400	0.664400	0.584400
H281	H28	0.048900	0.933300	0.218600
H291	H29	0.914800	0.402000	0.222100
H301	H30	0.617400	0.132800	0.269200
H311	H31	0.384400	0.668900	0.847300
H321	H32	0.190300	0.496500	0.642500
H331	H33	0.756300	0.090600	0.095500
H341	H34	0.221600	0.678900	0.198700
H351	H35	0.690300	0.003500	0.857500
H361	H36	0.314900	0.691200	0.121300
H371	H37	0.081600	0.164400	0.084400
H381	H38	0.243700	0.909400	0.904500
H391	H39	0.333300	0.264200	0.209800
H401	H40	0.485600	0.052300	0.125900
H411	H41	0.721600	0.821100	0.301300
H421	H42	0.767900	0.319500	0.657400
H431	H43	0.166700	0.764200	0.709800
H441	H44	0.115600	0.168900	0.347300
H451	H45	0.232100	0.680500	0.342600
H461	H46	0.117400	0.367200	0.230800
H471	H47	0.778400	0.321100	0.801300
H481	H48	0.882600	0.632800	0.769200
H491	H49	0.351400	0.299900	0.120000
H501	H50	0.165200	0.126600	0.771400
H511	H51	0.851400	0.200100	0.380000
H521	H52	0.014400	0.552300	0.625900
H531	H53	0.918400	0.835600	0.915600
H541	H54	0.660700	0.944600	0.643100
H551	H55	0.968200	0.316900	0.754100
H561	H56	0.108200	0.960700	0.652800
H571	H57	0.537500	0.229800	0.666400
H581	H58	0.985600	0.447700	0.374100
H591	H59	0.665200	0.373400	0.728600
H601	H60	0.334800	0.626600	0.271400
H611	H61	0.629900	0.650900	0.136100
H621	H62	0.370100	0.349100	0.863900
H631	H63	0.129900	0.849100	0.363900
H641	H64	0.185100	0.191200	0.621300
H651	H65	0.809700	0.503500	0.357500
H661	H66	0.339300	0.055400	0.356900
H671	H67	0.451100	0.433300	0.718600
H681	H68	0.229400	0.983200	0.224200
H691	H69	0.382600	0.867200	0.730800
H701	H70	0.581600	0.335600	0.415600
H711	H71	0.729400	0.516800	0.275800
H721	H72	0.440700	0.633900	0.674700
H731	H73	0.085200	0.598000	0.777900
H741	H74	0.548900	0.566700	0.281400
H751	H75	0.585200	0.902000	0.722100
H761	H76	0.278400	0.178900	0.698700
H771	H77	0.270600	0.483200	0.724200
H781	H78	0.685100	0.308800	0.878700
H791	H79	0.962500	0.729800	0.166400
H801	H80	0.870100	0.150900	0.636100
H811	H81	0.059300	0.133900	0.174700
H821	H82	0.037500	0.270200	0.833600
H831	H83	0.559300	0.366100	0.325300
H841	H84	0.391800	0.460700	0.152800
H851	H85	0.884400	0.831100	0.652700
H861	H86	0.414800	0.098000	0.277900
H871	H87	0.770600	0.016800	0.775800
H881	H88	0.951100	0.066700	0.781400
C11	C1	0.482000	0.962000	0.260760
C21	C2	0.351100	0.856100	0.406110
C31	C3	0.665700	0.584000	0.665970
C41	C4	0.242000	0.114400	0.840400
C51	C5	0.494700	0.864000	0.275430
C61	C6	0.923600	0.466900	0.210310
C71	C7	0.608500	0.094600	0.646510
C81	C8	0.228100	0.952400	0.877940
C91	C9	0.951300	0.578000	0.700550
C101	C10	0.235100	0.550200	0.380720
C111	C11	0.548500	0.164600	0.677380
C121	C12	0.587900	0.613800	0.157360
C131	C13	0.797100	0.749700	0.358520
C141	C14	0.981900	0.719100	0.578210
C151	C15	0.518000	0.038000	0.739240
C161	C16	0.048700	0.422000	0.299450
C171	C17	0.988700	0.054100	0.635890
C181	C18	0.742000	0.385600	0.659600
C191	C19	0.124900	0.257200	0.283710
C201	C20	0.217500	0.747400	0.685090
C211	C21	0.147200	0.983100	0.793880
C221	C22	0.824400	0.657400	0.375640
C231	C23	0.048500	0.335400	0.822620
C241	C24	0.122200	0.507600	0.836720
C251	C25	0.165700	0.916000	0.834030
C261	C26	0.616900	0.332200	0.336430
C271	C27	0.963600	0.998100	0.279030
C281	C28	0.451500	0.835400	0.322620
C291	C29	0.318300	0.582300	0.297260
C301	C30	0.222800	0.830000	0.218790
C311	C31	0.690500	0.298400	0.300680
C321	C32	0.282500	0.247400	0.185090
C331	C33	0.630300	0.314500	0.390500
C341	C34	0.835200	0.408500	0.575220
C351	C35	0.777200	0.170000	0.781210
C361	C36	0.600200	0.148400	0.235070
C371	C37	0.722800	0.670000	0.281210
C381	C38	0.869700	0.814500	0.890500
C391	C39	0.054200	0.998600	0.667700
C401	C40	0.101700	0.882300	0.287080
C411	C41	0.087900	0.886200	0.342640
C421	C42	0.005300	0.364000	0.775430
C431	C43	0.615100	0.150300	0.924980
C441	C44	0.297100	0.750300	0.141480
C451	C45	0.624900	0.242800	0.216290
C461	C46	0.753800	0.075100	0.796980
C471	C47	0.898300	0.117700	0.712920
C481	C48	0.771900	0.047600	0.122060
C491	C49	0.490700	0.552500	0.076880
C501	C50	0.505300	0.136000	0.724570
C511	C51	0.383100	0.667800	0.663570
C521	C52	0.021000	0.400900	0.351770
C531	C53	0.648900	0.143900	0.593890
C541	C54	0.782500	0.252600	0.314910
C551	C55	0.884900	0.650300	0.424980
C561	C56	0.758000	0.885600	0.159600
C571	C57	0.675600	0.157400	0.875640
C581	C58	0.218800	0.235700	0.095070
C591	C59	0.979000	0.599100	0.648230
C601	C60	0.795700	0.567200	0.345350
C611	C61	0.706400	0.733500	0.868770
C621	C62	0.622200	0.992400	0.663280
C631	C63	0.550200	0.194400	0.132440
C641	C64	0.725500	0.240800	0.463880
C651	C65	0.702900	0.249700	0.858520
C661	C66	0.050200	0.305600	0.367560
C671	C67	0.398300	0.382300	0.787080
C681	C68	0.352800	0.483100	0.293880
C691	C69	0.130300	0.185500	0.109500
C701	C70	0.509300	0.447500	0.923120
C711	C71	0.599500	0.267600	0.164620
C721	C72	0.281200	0.735700	0.595070
C731	C73	0.116900	0.167800	0.163570
C741	C74	0.243100	0.742000	0.188380
C751	C75	0.521000	0.099100	0.148230
C761	C76	0.664800	0.908500	0.075220
C771	C77	0.175600	0.342600	0.624360
C781	C78	0.148900	0.356100	0.906110
C791	C79	0.479000	0.900900	0.851770
C801	C80	0.295700	0.932800	0.154650
C811	C81	0.369700	0.685500	0.609500
C821	C82	0.225500	0.259200	0.036120
C831	C83	0.039800	0.937100	0.255090
C841	C84	0.877800	0.492400	0.163280
C851	C85	0.423600	0.033100	0.289690
C861	C86	0.202900	0.250300	0.641480
C871	C87	0.274500	0.759200	0.536120
C881	C88	0.746200	0.575100	0.296980
C891	C89	0.735100	0.949800	0.119280
C901	C90	0.399800	0.851600	0.764930
C911	C91	0.335200	0.091500	0.924780
C921	C92	0.463600	0.501900	0.220970
C931	C93	0.253800	0.424900	0.703020
C941	C94	0.809500	0.798400	0.800680
C951	C95	0.256900	0.242000	0.688380
C961	C96	0.899800	0.648400	0.735070
C971	C97	0.108500	0.405400	0.853490
C981	C98	0.818300	0.917700	0.202740
C991	C99	0.518100	0.219100	0.078210
C1001	C100	0.891500	0.594600	0.146510
C1011	C101	0.511300	0.554100	0.135890
C1021	C102	0.960200	0.062900	0.744910
C1031	C103	0.391500	0.905400	0.353490
C1041	C104	0.704300	0.067200	0.845350
C1051	C105	0.949800	0.694400	0.632440
C1061	C106	0.576400	0.966900	0.710310
C1071	C107	0.548700	0.078000	0.200550
C1081	C108	0.100200	0.351600	0.264930
C1091	C109	0.400500	0.732400	0.835380
C1101	C110	0.334300	0.416000	0.334030
C1111	C111	0.774500	0.740800	0.963880
C1121	C112	0.384900	0.849700	0.075020
C1131	C113	0.982000	0.538000	0.239240
C1141	C114	0.115100	0.349700	0.575020
C1151	C115	0.743100	0.758000	0.311620
C1161	C116	0.309500	0.701600	0.699320
C1171	C117	0.764900	0.449800	0.619280
C1181	C118	0.377800	0.007600	0.336720
C1191	C119	0.277200	0.330000	0.718790
C1201	C120	0.756900	0.258000	0.811620
C1211	C121	0.647200	0.516900	0.706120
C1221	C122	0.204300	0.432800	0.654650
C1231	C123	0.488700	0.445900	0.864110
C1241	C124	0.681700	0.417700	0.702740
C1251	C125	0.990700	0.947500	0.423120
C1261	C126	0.912100	0.113800	0.657360
C1271	C127	0.412100	0.386200	0.842640
C1281	C128	0.258000	0.614400	0.340400
C1291	C129	0.554200	0.501400	0.832300
C1301	C130	0.536400	0.498100	0.779030
C1311	C131	0.875100	0.742800	0.716290
C1321	C132	0.728100	0.547600	0.622060
C1331	C133	0.181700	0.082300	0.797260
C1341	C134	0.851100	0.643900	0.093890
C1351	C135	0.717500	0.752600	0.814910
C1361	C136	0.264900	0.050200	0.880720
C1371	C137	0.834300	0.084000	0.165970
C1381	C138	0.883100	0.832200	0.836430
C1391	C139	0.246200	0.924900	0.203020
C1401	C140	0.793600	0.233500	0.368770
C1411	C141	0.036400	0.001900	0.720970
C1421	C142	0.449800	0.805600	0.867560
C1431	C143	0.375100	0.757200	0.783710
C1441	C144	0.324400	0.842600	0.124360
C1451	C145	0.718800	0.264300	0.404930
C1461	C146	0.018000	0.462000	0.760760
C1471	C147	0.994700	0.636000	0.224570
C1481	C148	0.011300	0.945900	0.364110
C1491	C149	0.481900	0.780900	0.921790
C1501	C150	0.539800	0.562900	0.244910
C1511	C151	0.852800	0.016900	0.206120
C1521	C152	0.781200	0.764300	0.904930
C1531	C153	0.951500	0.664600	0.177380
C1541	C154	0.190500	0.201600	0.199320
C1551	C155	0.601700	0.617700	0.212920
C1561	C156	0.099500	0.232400	0.335380
C1571	C157	0.460200	0.437100	0.755090
C1581	C158	0.451300	0.922000	0.799450
C1591	C159	0.945800	0.001400	0.332300
C1601	C160	0.076400	0.533100	0.789690
C1611	C161	0.009300	0.052500	0.576880
C1621	C162	0.445800	0.498600	0.167700
C1631	C163	0.164800	0.591500	0.424780
C1641	C164	0.900500	0.767600	0.664620
C1651	C165	0.018100	0.280900	0.421790
C1661	C166	0.293600	0.266500	0.131230
C1671	C167	0.271900	0.452400	0.377940
C1681	C168	0.206400	0.766500	0.631230
O11	O1	0.408400	0.764500	0.050090
O21	O2	0.059600	0.911880	0.452110
O31	O3	0.678800	0.315800	0.246460
O41	O4	0.633870	0.819580	0.074040
O51	O5	0.410400	0.934800	0.059920
O61	O6	0.470500	0.691750	0.936310
O71	O7	0.131800	0.282800	0.916050
O81	O8	0.140400	0.523600	0.458180
O91	O9	0.970500	0.808250	0.563690
O101	O10	0.661600	0.274300	0.494370
O111	O11	0.868200	0.717200	0.083950
O121	O12	0.694900	0.685370	0.974650
O131	O13	0.440400	0.411880	0.952110
O141	O14	0.095200	0.020000	0.561880
O151	O15	0.178800	0.184200	0.253540
O161	O16	0.805100	0.185370	0.474650
O171	O17	0.908100	0.061200	0.248630
O181	O18	0.978900	0.350550	0.453760
O191	O19	0.366130	0.180420	0.925960
O201	O20	0.029500	0.191750	0.436310
O211	O21	0.408100	0.438800	0.251370
O221	O22	0.973700	0.480100	0.713950
O231	O23	0.404800	0.520000	0.061880
O241	O24	0.866130	0.319580	0.574040
O251	O25	0.089600	0.434800	0.559920
O261	O26	0.161600	0.225700	0.005630
O271	O27	0.904800	0.980000	0.438120
O281	O28	0.294500	0.937100	0.431670
O291	O29	0.559600	0.588120	0.047890
O301	O30	0.194900	0.814630	0.525350
O311	O31	0.521100	0.850550	0.953760
O321	O32	0.705500	0.062900	0.568330
O331	O33	0.177100	0.815400	0.267670
O341	O34	0.529500	0.308250	0.063690
O351	O35	0.305100	0.314630	0.025350
O361	O36	0.026300	0.519900	0.286050
O371	O37	0.591600	0.235500	0.949910
O381	O38	0.822900	0.184600	0.732330
O391	O39	0.595200	0.480000	0.938120
O401	O40	0.338400	0.725700	0.505630
O411	O41	0.940400	0.088120	0.547890
O421	O42	0.359600	0.023600	0.958180
O431	O43	0.838400	0.774300	0.994370
O441	O44	0.526300	0.980100	0.213950
O451	O45	0.794500	0.562900	0.068330
O461	O46	0.091900	0.938800	0.751370
O471	O47	0.021100	0.649450	0.546240
O481	O48	0.205500	0.437100	0.931670
O491	O49	0.631800	0.217200	0.583950
O501	O50	0.321200	0.684200	0.753540
O511	O51	0.473700	0.019900	0.786050
O521	O52	0.368200	0.782800	0.416050
O531	O53	0.133870	0.680420	0.425960
O541	O54	0.091600	0.264500	0.550090
O551	O55	0.589600	0.065200	0.940080
O561	O56	0.478900	0.149450	0.046240
O571	O57	0.677100	0.684600	0.232330
O581	O58	0.859600	0.476400	0.541820
O591	O59	0.640400	0.976400	0.041820
O601	O60	0.821200	0.815800	0.746460
O611	O61	0.910400	0.565200	0.440080
O621	O62	0.908400	0.735500	0.449910
O631	O63	0.322900	0.315400	0.767670
O641	O64	0.591900	0.561200	0.748630
