data_YINDOQ_clean_PM
_symmetry_space_group_name_H-M	'P1'
_cell_length_a	12.549700
_cell_length_b	17.747200
_cell_length_c	21.783000
_cell_angle_alpha	90.000000
_cell_angle_beta	90.000000
_cell_angle_gamma	97.507000
_symmetry_Int_Tables_number 1

loop_
_symmetry_equiv_pos_as_xyz
'x,y,z'

loop_
_atom_site_label
_atom_site_type_symbol
_atom_site_fract_x
_atom_site_fract_y
_atom_site_fract_z
Mn11	Mn1	0.827680	0.467290	0.845990
Mn21	Mn2	0.090040	0.039840	0.594180
Mn31	Mn3	0.172320	0.032710	0.345990
Mn41	Mn4	0.472530	0.029390	0.629380
Mn51	Mn5	0.909960	0.460160	0.094180
Mn61	Mn6	0.172320	0.532710	0.154010
Mn71	Mn7	0.909960	0.960160	0.405820
Mn81	Mn8	0.472530	0.529390	0.870620
Mn91	Mn9	0.090040	0.539840	0.905820
Mn101	Mn10	0.827680	0.967290	0.654010
Mn111	Mn11	0.527470	0.970610	0.370620
Mn121	Mn12	0.527470	0.470610	0.129380
H11	H1	0.194200	0.225300	0.484800
H21	H2	0.212800	0.971800	0.787100
H31	H3	0.088900	0.321700	0.897200
H41	H4	0.212800	0.471800	0.712900
H51	H5	0.339000	0.129900	0.974400
H61	H6	0.890800	0.305800	0.396900
H71	H7	0.653400	0.498400	0.527000
H81	H8	0.030600	0.618700	0.435800
H91	H9	0.562200	0.102400	0.067800
H101	H10	0.562200	0.602400	0.432200
H111	H11	0.787200	0.528200	0.287100
H121	H12	0.911100	0.178300	0.397200
H131	H13	0.109200	0.194200	0.896900
H141	H14	0.681000	0.743300	0.027200
H151	H15	0.437800	0.897600	0.932200
H161	H16	0.292400	0.807300	0.366900
H171	H17	0.213100	0.433500	0.935100
H181	H18	0.088900	0.821700	0.602800
H191	H19	0.319000	0.256700	0.972800
H201	H20	0.850200	0.974900	0.038300
H211	H21	0.241300	0.555100	0.306100
H221	H22	0.165100	0.222300	0.640200
H231	H23	0.626200	0.178500	0.893700
H241	H24	0.503200	0.560000	0.677400
H251	H25	0.009300	0.258500	0.577000
H261	H26	0.319000	0.756700	0.527200
H271	H27	0.496800	0.440000	0.322600
H281	H28	0.850200	0.474900	0.461700
H291	H29	0.834900	0.277700	0.140200
H301	H30	0.758700	0.944900	0.806100
H311	H31	0.342300	0.578200	0.086100
H321	H32	0.179100	0.353800	0.478500
H331	H33	0.596000	0.303100	0.885000
H341	H34	0.342300	0.078200	0.413900
H351	H35	0.834900	0.777700	0.359800
H361	H36	0.786900	0.566500	0.064900
H371	H37	0.144800	0.349500	0.640800
H381	H38	0.890800	0.805800	0.103100
H391	H39	0.241300	0.055100	0.193900
H401	H40	0.373800	0.321500	0.393700
H411	H41	0.346600	0.001600	0.027000
H421	H42	0.149800	0.025100	0.961700
H431	H43	0.657700	0.421800	0.913900
H441	H44	0.460400	0.770900	0.930300
H451	H45	0.668200	0.315800	0.620100
H461	H46	0.460400	0.270900	0.569700
H471	H47	0.539600	0.229100	0.069700
H481	H48	0.503200	0.060000	0.822600
H491	H49	0.855200	0.150500	0.140800
H501	H50	0.707600	0.192700	0.633100
H511	H51	0.055400	0.436700	0.327000
H521	H52	0.539600	0.729100	0.430300
H531	H53	0.339000	0.629900	0.525600
H541	H54	0.681000	0.243300	0.472800
H551	H55	0.820900	0.646200	0.521500
H561	H56	0.030600	0.118700	0.064200
H571	H57	0.911100	0.678300	0.102800
H581	H58	0.969400	0.381300	0.564200
H591	H59	0.331800	0.184200	0.120100
H601	H60	0.194200	0.725300	0.015200
H611	H61	0.009300	0.758500	0.923000
H621	H62	0.437800	0.397600	0.567800
H631	H63	0.165100	0.722300	0.859800
H641	H64	0.055400	0.936700	0.173000
H651	H65	0.661000	0.870100	0.025600
H661	H66	0.787200	0.028200	0.212900
H671	H67	0.944600	0.563300	0.673000
H681	H68	0.990700	0.741500	0.423000
H691	H69	0.373800	0.821500	0.106300
H701	H70	0.990700	0.241500	0.077000
H711	H71	0.213100	0.933500	0.564900
H721	H72	0.657700	0.921800	0.586100
H731	H73	0.144800	0.849500	0.859200
H741	H74	0.404000	0.696900	0.115000
H751	H75	0.707600	0.692700	0.866900
H761	H76	0.944600	0.063300	0.827000
H771	H77	0.661000	0.370100	0.474400
H781	H78	0.109200	0.694200	0.603100
H791	H79	0.596000	0.803100	0.615000
H801	H80	0.149800	0.525100	0.538300
H811	H81	0.668200	0.815800	0.879900
H821	H82	0.404000	0.196900	0.385000
H831	H83	0.292400	0.307300	0.133100
H841	H84	0.653400	0.998400	0.973000
H851	H85	0.758700	0.444900	0.693900
H861	H86	0.969400	0.881300	0.935800
H871	H87	0.855200	0.650500	0.359200
H881	H88	0.346600	0.501600	0.473000
H891	H89	0.331800	0.684200	0.379900
H901	H90	0.820900	0.146200	0.978500
H911	H91	0.805800	0.774700	0.515200
H921	H92	0.179100	0.853800	0.021500
H931	H93	0.805800	0.274700	0.984800
H941	H94	0.496800	0.940000	0.177400
H951	H95	0.786900	0.066500	0.435100
H961	H96	0.626200	0.678500	0.606300
C11	C1	0.239500	0.269800	0.118800
C21	C2	0.138400	0.288400	0.105000
C31	C3	0.185100	0.140900	0.091600
C41	C4	0.623600	0.011000	0.734100
C51	C5	0.620400	0.759300	0.044900
C61	C6	0.383100	0.362000	0.583000
C71	C7	0.685500	0.767600	0.395000
C81	C8	0.437700	0.374400	0.924000
C91	C9	0.736700	0.304200	0.611500
C101	C10	0.453400	0.292900	0.927300
C111	C11	0.861600	0.711600	0.895000
C121	C12	0.073400	0.016200	0.797400
C131	C13	0.967600	0.659200	0.561200
C141	C14	0.133700	0.741300	0.033100
C151	C15	0.455200	0.231700	0.404200
C161	C16	0.917000	0.843100	0.922000
C171	C17	0.711300	0.467900	0.669700
C181	C18	0.917000	0.343100	0.578000
C191	C19	0.647200	0.999900	0.930500
C201	C20	0.052200	0.187800	0.443100
C211	C21	0.437200	0.306400	0.408500
C221	C22	0.961800	0.987800	0.268200
C231	C23	0.685500	0.267600	0.105000
C241	C24	0.207900	0.833800	0.873900
C251	C25	0.792100	0.166200	0.126100
C261	C26	0.367900	0.493400	0.303800
C271	C27	0.289700	0.886000	0.895500
C281	C28	0.961300	0.449400	0.399900
C291	C29	0.383100	0.862000	0.917000
C301	C30	0.569900	0.036300	0.903700
C311	C31	0.437700	0.874400	0.576000
C321	C32	0.736700	0.804200	0.888500
C331	C33	0.130300	0.522500	0.579500
C341	C34	0.048400	0.210600	0.914000
C351	C35	0.367900	0.993400	0.196200
C361	C36	0.647200	0.499900	0.569500
C371	C37	0.124300	0.818000	0.036100
C381	C38	0.514300	0.357900	0.434900
C391	C39	0.185100	0.640900	0.408400
C401	C40	0.760500	0.230200	0.618800
C411	C41	0.038700	0.050600	0.899900
C421	C42	0.620400	0.259300	0.455100
C431	C43	0.616900	0.138000	0.083000
C441	C44	0.562300	0.625600	0.076000
C451	C45	0.038200	0.512200	0.768200
C461	C46	0.866300	0.258700	0.966900
C471	C47	0.716400	0.465300	0.606400
C481	C48	0.814900	0.359100	0.591600
C491	C49	0.716400	0.965300	0.893600
C501	C50	0.951600	0.789400	0.086000
C511	C51	0.951600	0.289400	0.414000
C521	C52	0.562800	0.193600	0.908500
C531	C53	0.220800	0.257700	0.625900
C541	C54	0.559100	0.538000	0.659600
C551	C55	0.623600	0.511000	0.765900
C561	C56	0.675600	0.850600	0.393700
C571	C57	0.603500	0.713900	0.416400
C581	C58	0.814900	0.859100	0.908400
C591	C59	0.760500	0.730200	0.881200
C601	C60	0.616900	0.638000	0.417000
C611	C61	0.607600	0.834900	0.042400
C621	C62	0.710300	0.114000	0.104500
C631	C63	0.283600	0.034700	0.106400
C641	C64	0.559100	0.038000	0.840400
C651	C65	0.940300	0.769500	0.914700
C661	C66	0.675600	0.350600	0.106300
C671	C67	0.485700	0.642100	0.565100
C681	C68	0.961800	0.487800	0.231800
C691	C69	0.866300	0.758700	0.533100
C701	C70	0.314500	0.232400	0.605000
C711	C71	0.440900	0.962000	0.159600
C721	C72	0.607600	0.334900	0.457600
C731	C73	0.324400	0.149400	0.606300
C741	C74	0.324400	0.649400	0.893700
C751	C75	0.792100	0.666200	0.373900
C761	C76	0.220800	0.757700	0.874100
C771	C77	0.562300	0.125600	0.424000
C781	C78	0.379600	0.740700	0.544900
C791	C79	0.239500	0.769800	0.381200
C801	C80	0.991800	0.953700	0.160500
C811	C81	0.546600	0.207100	0.427300
C821	C82	0.430100	0.963700	0.096300
C831	C83	0.052200	0.687800	0.056900
C841	C84	0.083000	0.156900	0.078000
C851	C85	0.396500	0.786100	0.916400
C861	C86	0.392400	0.165100	0.957600
C871	C87	0.289700	0.386000	0.604500
C881	C88	0.057000	0.104400	0.450300
C891	C89	0.869700	0.477500	0.420500
C901	C90	0.263300	0.195800	0.111500
C911	C91	0.167200	0.989700	0.815700
C921	C92	0.352800	0.000100	0.069500
C931	C93	0.544800	0.768300	0.595800
C941	C94	0.059700	0.230500	0.085300
C951	C95	0.779200	0.742300	0.374100
C961	C96	0.396500	0.286100	0.583600
C971	C97	0.036600	0.786700	0.584700
C981	C98	0.032400	0.340800	0.438800
C991	C99	0.430100	0.463700	0.403700
C1001	C100	0.057000	0.604400	0.049700
C1011	C101	0.036600	0.286700	0.915300
C1021	C102	0.569900	0.536300	0.596300
C1031	C103	0.632100	0.006600	0.803800
C1041	C104	0.710300	0.614000	0.395500
C1051	C105	0.008200	0.546300	0.660500
C1061	C106	0.808500	0.509500	0.377400
C1071	C107	0.926600	0.983800	0.202600
C1081	C108	0.485700	0.142100	0.934900
C1091	C109	0.008200	0.046300	0.839500
C1101	C110	0.083000	0.656900	0.422000
C1111	C111	0.440900	0.462000	0.340400
C1121	C112	0.893000	0.632200	0.888900
C1131	C113	0.875700	0.182000	0.963900
C1141	C114	0.455200	0.731700	0.095800
C1151	C115	0.283600	0.534700	0.393600
C1161	C116	0.711300	0.967900	0.830300
C1171	C117	0.963400	0.713300	0.084700
C1181	C118	0.875700	0.682000	0.536100
C1191	C119	0.207900	0.333800	0.626100
C1201	C120	0.832800	0.010300	0.184300
C1211	C121	0.288700	0.532100	0.330300
C1221	C122	0.130300	0.022500	0.920500
C1231	C123	0.314500	0.732400	0.895000
C1241	C124	0.191500	0.990500	0.877400
C1251	C125	0.940300	0.269500	0.585300
C1261	C126	0.352800	0.500100	0.430500
C1271	C127	0.779200	0.242300	0.125900
C1281	C128	0.632100	0.506600	0.696200
C1291	C129	0.947800	0.312200	0.943100
C1301	C130	0.376400	0.989000	0.265900
C1311	C131	0.869700	0.977500	0.079500
C1321	C132	0.808500	0.009500	0.122600
C1331	C133	0.544800	0.268300	0.904200
C1341	C134	0.379600	0.240700	0.955100
C1351	C135	0.832800	0.510300	0.315700
C1361	C136	0.059700	0.730500	0.414700
C1371	C137	0.392400	0.665100	0.542400
C1381	C138	0.562800	0.693600	0.591500
C1391	C139	0.167200	0.489700	0.684300
C1401	C140	0.038700	0.550600	0.600100
C1411	C141	0.376400	0.489000	0.234100
C1421	C142	0.926600	0.483800	0.297400
C1431	C143	0.288700	0.032100	0.169700
C1441	C144	0.967600	0.159200	0.938800
C1451	C145	0.893000	0.132200	0.611100
C1461	C146	0.191500	0.490500	0.622600
C1471	C147	0.963400	0.213300	0.415300
C1481	C148	0.453400	0.792900	0.572700
C1491	C149	0.947800	0.812200	0.556900
C1501	C150	0.038200	0.012200	0.731800
C1511	C151	0.032400	0.840800	0.061200
C1521	C152	0.991800	0.453700	0.339500
C1531	C153	0.943000	0.895600	0.549700
C1541	C154	0.546600	0.707100	0.072700
C1551	C155	0.514300	0.857900	0.065100
C1561	C156	0.961300	0.949400	0.100100
C1571	C157	0.133700	0.241300	0.466900
C1581	C158	0.263300	0.695800	0.388500
C1591	C159	0.107000	0.367800	0.111100
C1601	C160	0.124300	0.318000	0.463900
C1611	C161	0.107000	0.867800	0.388900
C1621	C162	0.073400	0.516200	0.702600
C1631	C163	0.138400	0.788400	0.395000
C1641	C164	0.048400	0.710600	0.586000
C1651	C165	0.603500	0.213900	0.083600
C1661	C166	0.437200	0.806400	0.091500
C1671	C167	0.943000	0.395600	0.950300
C1681	C168	0.861600	0.211600	0.605000
O11	O1	0.497900	0.082300	0.391600
O21	O2	0.759000	0.897000	0.387400
O31	O3	0.910900	0.918300	0.499000
O41	O4	0.026200	0.418300	0.443400
O51	O5	0.416600	0.129900	0.602200
O61	O6	0.973800	0.081700	0.943400
O71	O7	0.089100	0.581700	0.999000
O81	O8	0.797900	0.933000	0.922900
O91	O9	0.202100	0.067000	0.077100
O101	O10	0.108300	0.509200	0.809100
O111	O11	0.448800	0.453100	0.213100
O121	O12	0.551200	0.046900	0.713100
O131	O13	0.279200	0.577500	0.076000
O141	O14	0.939900	0.512700	0.778280
O151	O15	0.060100	0.987300	0.278280
O161	O16	0.089100	0.081700	0.501000
O171	O17	0.891700	0.990800	0.309100
O181	O18	0.891700	0.490800	0.190900
O191	O19	0.910900	0.418300	0.001000
O201	O20	0.635900	0.602100	0.047600
O211	O21	0.714400	0.536400	0.399400
O221	O22	0.817400	0.577500	0.887300
O231	O23	0.965100	0.439300	0.904800
O241	O24	0.498300	0.566100	0.558390
O251	O25	0.817000	0.040800	0.459200
O261	O26	0.285600	0.963600	0.899400
O271	O27	0.990700	0.126000	0.614000
O281	O28	0.009300	0.374000	0.114000
O291	O29	0.720800	0.422500	0.924000
O301	O30	0.034900	0.560700	0.095200
O311	O31	0.990700	0.626000	0.886000
O321	O32	0.502100	0.417700	0.891600
O331	O33	0.686200	0.978400	0.702900
O341	O34	0.583400	0.370100	0.102200
O351	O35	0.182600	0.922500	0.387300
O361	O36	0.241000	0.103000	0.612600
O371	O37	0.714400	0.036400	0.100600
O381	O38	0.551200	0.546900	0.786900
O391	O39	0.060100	0.487300	0.221720
O401	O40	0.313800	0.021600	0.297100
O411	O41	0.364100	0.397900	0.952400
O421	O42	0.583400	0.870100	0.397800
O431	O43	0.501700	0.433900	0.441610
O441	O44	0.108300	0.009200	0.690900
O451	O45	0.498300	0.066100	0.941610
O461	O46	0.182600	0.422500	0.112700
O471	O47	0.026200	0.918300	0.056600
O481	O48	0.279200	0.077500	0.424000
O491	O49	0.313800	0.521600	0.202900
O501	O50	0.497900	0.582300	0.108400
O511	O51	0.501700	0.933900	0.058390
O521	O52	0.241000	0.603000	0.887400
O531	O53	0.416600	0.629900	0.897800
O541	O54	0.720800	0.922500	0.576000
O551	O55	0.817400	0.077500	0.612700
O561	O56	0.759000	0.397000	0.112600
O571	O57	0.183000	0.459200	0.959200
O581	O58	0.817000	0.540800	0.040800
O591	O59	0.448800	0.953100	0.286900
O601	O60	0.285600	0.463600	0.600600
O611	O61	0.202100	0.567000	0.422900
O621	O62	0.183000	0.959200	0.540800
O631	O63	0.965100	0.939300	0.595200
O641	O64	0.939900	0.012700	0.721720
O651	O65	0.364100	0.897900	0.547600
O661	O66	0.009300	0.874000	0.386000
O671	O67	0.502100	0.917700	0.608400
O681	O68	0.797900	0.433000	0.577100
O691	O69	0.635900	0.102100	0.452400
O701	O70	0.686200	0.478400	0.797100
O711	O71	0.973800	0.581700	0.556600
O721	O72	0.034900	0.060700	0.404800
