data_YINPEQ_clean_PM
_symmetry_space_group_name_H-M	'P1'
_cell_length_a	18.667900
_cell_length_b	18.667900
_cell_length_c	17.834700
_cell_angle_alpha	90.000000
_cell_angle_beta	90.000000
_cell_angle_gamma	90.000000
_symmetry_Int_Tables_number 1

loop_
_symmetry_equiv_pos_as_xyz
'x,y,z'

loop_
_atom_site_label
_atom_site_type_symbol
_atom_site_fract_x
_atom_site_fract_y
_atom_site_fract_z
Cd11	Cd1	0.572820	0.432880	0.006110
Cl11	Cl1	0.546980	0.556060	0.064510
O11	O1	0.652600	0.478570	0.921510
C11	C1	0.709500	0.419500	0.819200
O21	O2	0.638370	0.362530	0.912570
C21	C2	0.663900	0.419800	0.888700
C31	C3	0.723300	0.482400	0.781100
H11	H1	0.704700	0.525200	0.799200
C41	C4	0.737400	0.356900	0.791400
H21	H2	0.727300	0.313900	0.815400
C51	C5	0.780300	0.357000	0.728200
H31	H3	0.800500	0.314300	0.711400
C61	C6	0.793300	0.419700	0.690000
C71	C7	0.841100	0.419900	0.621600
C81	C8	0.764300	0.482700	0.716700
H41	H4	0.772400	0.525400	0.691200
O31	O3	0.879090	0.366820	0.607830
O41	O4	0.841900	0.475060	0.580710
Cd21	Cd2	0.927180	0.067120	0.006110
Cl21	Cl2	0.953020	0.943940	0.064510
O51	O5	0.847400	0.021430	0.921510
C91	C9	0.790500	0.080500	0.819200
O61	O6	0.861630	0.137470	0.912570
C101	C10	0.836100	0.080200	0.888700
C111	C11	0.776700	0.017600	0.781100
H51	H5	0.795300	0.974800	0.799200
C121	C12	0.762600	0.143100	0.791400
H61	H6	0.772700	0.186100	0.815400
C131	C13	0.719700	0.143000	0.728200
H71	H7	0.699500	0.185700	0.711400
C141	C14	0.706700	0.080300	0.690000
C151	C15	0.658900	0.080100	0.621600
C161	C16	0.735700	0.017300	0.716700
H81	H8	0.727600	0.974600	0.691200
O71	O7	0.620910	0.133180	0.607830
O81	O8	0.658100	0.024940	0.580710
Cd31	Cd3	0.567120	0.072820	0.506110
Cl31	Cl3	0.443940	0.046980	0.564510
O91	O9	0.521430	0.152600	0.421510
C171	C17	0.580500	0.209500	0.319200
O101	O10	0.637470	0.138370	0.412570
C181	C18	0.580200	0.163900	0.388700
C191	C19	0.517600	0.223300	0.281100
H91	H9	0.474800	0.204700	0.299200
C201	C20	0.643100	0.237400	0.291400
H101	H10	0.686100	0.227300	0.315400
C211	C21	0.643000	0.280300	0.228200
H111	H11	0.685700	0.300500	0.211400
C221	C22	0.580300	0.293300	0.190000
C231	C23	0.580100	0.341100	0.121600
C241	C24	0.517300	0.264300	0.216700
H121	H12	0.474600	0.272400	0.191200
O111	O11	0.633180	0.379090	0.107830
O121	O12	0.524940	0.341900	0.080710
Cd41	Cd4	0.932880	0.427180	0.506110
Cl41	Cl4	0.056060	0.453020	0.564510
O131	O13	0.978570	0.347400	0.421510
C251	C25	0.919500	0.290500	0.319200
O141	O14	0.862530	0.361630	0.412570
C261	C26	0.919800	0.336100	0.388700
C271	C27	0.982400	0.276700	0.281100
H131	H13	0.025200	0.295300	0.299200
C281	C28	0.856900	0.262600	0.291400
H141	H14	0.813900	0.272700	0.315400
C291	C29	0.857000	0.219700	0.228200
H151	H15	0.814300	0.199500	0.211400
C301	C30	0.919700	0.206700	0.190000
C311	C31	0.919900	0.158900	0.121600
C321	C32	0.982700	0.235700	0.216700
H161	H16	0.025400	0.227600	0.191200
O151	O15	0.866820	0.120910	0.107830
O161	O16	0.975060	0.158100	0.080710
Cd51	Cd5	0.427180	0.567120	0.993890
Cl51	Cl5	0.453020	0.443940	0.935490
O171	O17	0.347400	0.521430	0.078490
C331	C33	0.290500	0.580500	0.180800
O181	O18	0.361630	0.637470	0.087430
C341	C34	0.336100	0.580200	0.111300
C351	C35	0.276700	0.517600	0.218900
H171	H17	0.295300	0.474800	0.200800
C361	C36	0.262600	0.643100	0.208600
H181	H18	0.272700	0.686100	0.184600
C371	C37	0.219700	0.643000	0.271800
H191	H19	0.199500	0.685700	0.288600
C381	C38	0.206700	0.580300	0.310000
C391	C39	0.158900	0.580100	0.378400
C401	C40	0.235700	0.517300	0.283300
H201	H20	0.227600	0.474600	0.308800
O191	O19	0.120910	0.633180	0.392170
O201	O20	0.158100	0.524940	0.419290
Cd61	Cd6	0.072820	0.932880	0.993890
Cl61	Cl6	0.046980	0.056060	0.935490
O211	O21	0.152600	0.978570	0.078490
C411	C41	0.209500	0.919500	0.180800
O221	O22	0.138370	0.862530	0.087430
C421	C42	0.163900	0.919800	0.111300
C431	C43	0.223300	0.982400	0.218900
H211	H21	0.204700	0.025200	0.200800
C441	C44	0.237400	0.856900	0.208600
H221	H22	0.227300	0.813900	0.184600
C451	C45	0.280300	0.857000	0.271800
H231	H23	0.300500	0.814300	0.288600
C461	C46	0.293300	0.919700	0.310000
C471	C47	0.341100	0.919900	0.378400
C481	C48	0.264300	0.982700	0.283300
H241	H24	0.272400	0.025400	0.308800
O231	O23	0.379090	0.866820	0.392170
O241	O24	0.341900	0.975060	0.419290
Cd71	Cd7	0.432880	0.927180	0.493890
Cl71	Cl7	0.556060	0.953020	0.435490
O251	O25	0.478570	0.847400	0.578490
C491	C49	0.419500	0.790500	0.680800
O261	O26	0.362530	0.861630	0.587430
C501	C50	0.419800	0.836100	0.611300
C511	C51	0.482400	0.776700	0.718900
H251	H25	0.525200	0.795300	0.700800
C521	C52	0.356900	0.762600	0.708600
H261	H26	0.313900	0.772700	0.684600
C531	C53	0.357000	0.719700	0.771800
H271	H27	0.314300	0.699500	0.788600
C541	C54	0.419700	0.706700	0.810000
C551	C55	0.419900	0.658900	0.878400
C561	C56	0.482700	0.735700	0.783300
H281	H28	0.525400	0.727600	0.808800
O271	O27	0.366820	0.620910	0.892170
O281	O28	0.475060	0.658100	0.919290
Cd81	Cd8	0.067120	0.572820	0.493890
Cl81	Cl8	0.943940	0.546980	0.435490
O291	O29	0.021430	0.652600	0.578490
C571	C57	0.080500	0.709500	0.680800
O301	O30	0.137470	0.638370	0.587430
C581	C58	0.080200	0.663900	0.611300
C591	C59	0.017600	0.723300	0.718900
H291	H29	0.974800	0.704700	0.700800
C601	C60	0.143100	0.737400	0.708600
H301	H30	0.186100	0.727300	0.684600
C611	C61	0.143000	0.780300	0.771800
H311	H31	0.185700	0.800500	0.788600
C621	C62	0.080300	0.793300	0.810000
C631	C63	0.080100	0.841100	0.878400
C641	C64	0.017300	0.764300	0.783300
H321	H32	0.974600	0.772400	0.808800
O311	O31	0.133180	0.879090	0.892170
O321	O32	0.024940	0.841900	0.919290
