data_YIPDOR_clean_PM
_symmetry_space_group_name_H-M	'P1'
_cell_length_a	18.443000
_cell_length_b	18.443000
_cell_length_c	15.166000
_cell_angle_alpha	90.000000
_cell_angle_beta	90.000000
_cell_angle_gamma	90.000000
_symmetry_Int_Tables_number 1

loop_
_symmetry_equiv_pos_as_xyz
'x,y,z'

loop_
_atom_site_label
_atom_site_type_symbol
_atom_site_fract_x
_atom_site_fract_y
_atom_site_fract_z
C11	C1	0.685900	0.947000	0.362600
C21	C2	0.695800	0.960600	0.273800
H11	H1	0.732100	0.936600	0.242800
C31	C3	0.651200	0.010200	0.231200
H21	H2	0.658000	0.018200	0.171200
C41	C4	0.598300	0.047500	0.273500
C51	C5	0.588600	0.033600	0.364500
H31	H3	0.552300	0.058000	0.395000
C61	C6	0.631300	0.985400	0.408600
H41	H4	0.624500	0.977700	0.468700
C71	C7	0.732000	0.890900	0.408700
H51	H5	0.701700	0.862100	0.447500
H61	H6	0.753100	0.858700	0.365100
C81	C8	0.847800	0.964400	0.568700
H71	H7	0.859700	0.978400	0.625800
C91	C9	0.856400	0.941400	0.434600
H81	H8	0.873700	0.934900	0.377500
N11	N1	0.790800	0.925000	0.460800
N21	N2	0.784400	0.939400	0.547100
N31	N3	0.894600	0.968400	0.500700
C101	C10	0.314100	0.053000	0.362600
C111	C11	0.304200	0.039400	0.273800
H91	H9	0.267900	0.063400	0.242800
C121	C12	0.348800	0.989800	0.231200
H101	H10	0.342000	0.981800	0.171200
C131	C13	0.401700	0.952500	0.273500
C141	C14	0.411400	0.966400	0.364500
H111	H11	0.447700	0.942000	0.395000
C151	C15	0.368700	0.014600	0.408600
H121	H12	0.375500	0.022300	0.468700
C161	C16	0.268000	0.109100	0.408700
H131	H13	0.298300	0.137900	0.447500
H141	H14	0.246900	0.141300	0.365100
C171	C17	0.152200	0.035600	0.568700
H151	H15	0.140300	0.021600	0.625800
C181	C18	0.143600	0.058600	0.434600
H161	H16	0.126300	0.065100	0.377500
N41	N4	0.209200	0.075000	0.460800
N51	N5	0.215600	0.060600	0.547100
N61	N6	0.105400	0.031600	0.500700
C191	C19	0.947000	0.314100	0.637400
C201	C20	0.960600	0.304200	0.726200
H171	H17	0.936600	0.267900	0.757200
C211	C21	0.010200	0.348800	0.768800
H181	H18	0.018200	0.342000	0.828800
C221	C22	0.047500	0.401700	0.726500
C231	C23	0.033600	0.411400	0.635500
H191	H19	0.058000	0.447700	0.605000
C241	C24	0.985400	0.368700	0.591400
H201	H20	0.977700	0.375500	0.531300
C251	C25	0.890900	0.268000	0.591300
H211	H21	0.862100	0.298300	0.552500
H221	H22	0.858700	0.246900	0.634900
C261	C26	0.964400	0.152200	0.431300
H231	H23	0.978400	0.140300	0.374200
C271	C27	0.941400	0.143600	0.565400
H241	H24	0.934900	0.126300	0.622500
N71	N7	0.925000	0.209200	0.539200
N81	N8	0.939400	0.215600	0.452900
N91	N9	0.968400	0.105400	0.499300
C281	C28	0.053000	0.685900	0.637400
C291	C29	0.039400	0.695800	0.726200
H251	H25	0.063400	0.732100	0.757200
C301	C30	0.989800	0.651200	0.768800
H261	H26	0.981800	0.658000	0.828800
C311	C31	0.952500	0.598300	0.726500
C321	C32	0.966400	0.588600	0.635500
H271	H27	0.942000	0.552300	0.605000
C331	C33	0.014600	0.631300	0.591400
H281	H28	0.022300	0.624500	0.531300
C341	C34	0.109100	0.732000	0.591300
H291	H29	0.137900	0.701700	0.552500
H301	H30	0.141300	0.753100	0.634900
C351	C35	0.035600	0.847800	0.431300
H311	H31	0.021600	0.859700	0.374200
C361	C36	0.058600	0.856400	0.565400
H321	H32	0.065100	0.873700	0.622500
N101	N10	0.075000	0.790800	0.539200
N111	N11	0.060600	0.784400	0.452900
N121	N12	0.031600	0.894600	0.499300
C371	C37	0.185900	0.553000	0.862600
C381	C38	0.195800	0.539400	0.773800
H331	H33	0.232100	0.563400	0.742800
C391	C39	0.151200	0.489800	0.731200
H341	H34	0.158000	0.481800	0.671200
C401	C40	0.098300	0.452500	0.773500
C411	C41	0.088600	0.466400	0.864500
H351	H35	0.052300	0.442000	0.895000
C421	C42	0.131300	0.514600	0.908600
H361	H36	0.124500	0.522300	0.968700
C431	C43	0.232000	0.609100	0.908700
H371	H37	0.201700	0.637900	0.947500
H381	H38	0.253100	0.641300	0.865100
C441	C44	0.347800	0.535600	0.068700
H391	H39	0.359700	0.521600	0.125800
C451	C45	0.356400	0.558600	0.934600
H401	H40	0.373700	0.565100	0.877500
N131	N13	0.290800	0.575000	0.960800
N141	N14	0.284400	0.560600	0.047100
N151	N15	0.394600	0.531600	0.000700
C461	C46	0.814100	0.447000	0.862600
C471	C47	0.804200	0.460600	0.773800
H411	H41	0.767900	0.436600	0.742800
C481	C48	0.848800	0.510200	0.731200
H421	H42	0.842000	0.518200	0.671200
C491	C49	0.901700	0.547500	0.773500
C501	C50	0.911400	0.533600	0.864500
H431	H43	0.947700	0.558000	0.895000
C511	C51	0.868700	0.485400	0.908600
H441	H44	0.875500	0.477700	0.968700
C521	C52	0.768000	0.390900	0.908700
H451	H45	0.798300	0.362100	0.947500
H461	H46	0.746900	0.358700	0.865100
C531	C53	0.652200	0.464400	0.068700
H471	H47	0.640300	0.478400	0.125800
C541	C54	0.643600	0.441400	0.934600
H481	H48	0.626300	0.434900	0.877500
N161	N16	0.709200	0.425000	0.960800
N171	N17	0.715600	0.439400	0.047100
N181	N18	0.605400	0.468400	0.000700
C551	C55	0.447000	0.185900	0.137400
C561	C56	0.460600	0.195800	0.226200
H491	H49	0.436600	0.232100	0.257200
C571	C57	0.510200	0.151200	0.268800
H501	H50	0.518200	0.158000	0.328800
C581	C58	0.547500	0.098300	0.226500
C591	C59	0.533600	0.088600	0.135500
H511	H51	0.558000	0.052300	0.105000
C601	C60	0.485400	0.131300	0.091400
H521	H52	0.477700	0.124500	0.031300
C611	C61	0.390900	0.232000	0.091300
H531	H53	0.362100	0.201700	0.052500
H541	H54	0.358700	0.253100	0.134900
C621	C62	0.464400	0.347800	0.931300
H551	H55	0.478400	0.359700	0.874200
C631	C63	0.441400	0.356400	0.065400
H561	H56	0.434900	0.373700	0.122500
N191	N19	0.425000	0.290800	0.039200
N201	N20	0.439400	0.284400	0.952900
N211	N21	0.468400	0.394600	0.999300
C641	C64	0.553000	0.814100	0.137400
C651	C65	0.539400	0.804200	0.226200
H571	H57	0.563400	0.767900	0.257200
C661	C66	0.489800	0.848800	0.268800
H581	H58	0.481800	0.842000	0.328800
C671	C67	0.452500	0.901700	0.226500
C681	C68	0.466400	0.911400	0.135500
H591	H59	0.442000	0.947700	0.105000
C691	C69	0.514600	0.868700	0.091400
H601	H60	0.522300	0.875500	0.031300
C701	C70	0.609100	0.768000	0.091300
H611	H61	0.637900	0.798300	0.052500
H621	H62	0.641300	0.746900	0.134900
C711	C71	0.535600	0.652200	0.931300
H631	H63	0.521600	0.640300	0.874200
C721	C72	0.558600	0.643600	0.065400
H641	H64	0.565100	0.626300	0.122500
N221	N22	0.575000	0.709200	0.039200
N231	N23	0.560600	0.715600	0.952900
N241	N24	0.531600	0.605400	0.999300
Cu11	Cu1	0.000000	0.000000	0.500000
Cu21	Cu2	0.500000	0.500000	0.000000
