data_YIRHOY_clean_PM
_symmetry_space_group_name_H-M	'P1'
_cell_length_a	13.415400
_cell_length_b	13.415400
_cell_length_c	13.415400
_cell_angle_alpha	90.000000
_cell_angle_beta	90.000000
_cell_angle_gamma	90.000000
_symmetry_Int_Tables_number 1

loop_
_symmetry_equiv_pos_as_xyz
'x,y,z'

loop_
_atom_site_label
_atom_site_type_symbol
_atom_site_fract_x
_atom_site_fract_y
_atom_site_fract_z
P11	P1	0.271400	0.448000	0.895500
O11	O1	0.191900	0.528400	0.886600
O21	O2	0.374300	0.493500	0.903000
O31	O3	0.262600	0.370000	0.818300
P21	P2	0.771400	0.948000	0.395500
O41	O4	0.691900	0.028400	0.386600
O51	O5	0.874300	0.993500	0.403000
O61	O6	0.762600	0.870000	0.318300
P31	P3	0.228600	0.552000	0.395500
O71	O7	0.308100	0.471600	0.386600
O81	O8	0.125700	0.506500	0.403000
O91	O9	0.237400	0.630000	0.318300
P41	P4	0.728600	0.052000	0.895500
O101	O10	0.808100	0.971600	0.886600
O111	O11	0.625700	0.006500	0.903000
O121	O12	0.737400	0.130000	0.818300
P51	P5	0.728600	0.948000	0.604500
O131	O13	0.808100	0.028400	0.613400
O141	O14	0.625700	0.993500	0.597000
O151	O15	0.737400	0.870000	0.681700
P61	P6	0.228600	0.448000	0.104500
O161	O16	0.308100	0.528400	0.113400
O171	O17	0.125700	0.493500	0.097000
O181	O18	0.237400	0.370000	0.181700
P71	P7	0.771400	0.052000	0.104500
O191	O19	0.691900	0.971600	0.113400
O201	O20	0.874300	0.006500	0.097000
O211	O21	0.762600	0.130000	0.181700
P81	P8	0.271400	0.552000	0.604500
O221	O22	0.191900	0.471600	0.613400
O231	O23	0.374300	0.506500	0.597000
O241	O24	0.262600	0.630000	0.681700
P91	P9	0.895500	0.271400	0.448000
O251	O25	0.886600	0.191900	0.528400
O261	O26	0.903000	0.374300	0.493500
O271	O27	0.818300	0.262600	0.370000
P101	P10	0.395500	0.771400	0.948000
O281	O28	0.386600	0.691900	0.028400
O291	O29	0.403000	0.874300	0.993500
O301	O30	0.318300	0.762600	0.870000
P111	P11	0.395500	0.228600	0.552000
O311	O31	0.386600	0.308100	0.471600
O321	O32	0.403000	0.125700	0.506500
O331	O33	0.318300	0.237400	0.630000
P121	P12	0.895500	0.728600	0.052000
O341	O34	0.886600	0.808100	0.971600
O351	O35	0.903000	0.625700	0.006500
O361	O36	0.818300	0.737400	0.130000
P131	P13	0.604500	0.728600	0.948000
O371	O37	0.613400	0.808100	0.028400
O381	O38	0.597000	0.625700	0.993500
O391	O39	0.681700	0.737400	0.870000
P141	P14	0.104500	0.228600	0.448000
O401	O40	0.113400	0.308100	0.528400
O411	O41	0.097000	0.125700	0.493500
O421	O42	0.181700	0.237400	0.370000
P151	P15	0.104500	0.771400	0.052000
O431	O43	0.113400	0.691900	0.971600
O441	O44	0.097000	0.874300	0.006500
O451	O45	0.181700	0.762600	0.130000
P161	P16	0.604500	0.271400	0.552000
O461	O46	0.613400	0.191900	0.471600
O471	O47	0.597000	0.374300	0.506500
O481	O48	0.681700	0.262600	0.630000
P171	P17	0.448000	0.895500	0.271400
O491	O49	0.528400	0.886600	0.191900
O501	O50	0.493500	0.903000	0.374300
O511	O51	0.370000	0.818300	0.262600
P181	P18	0.948000	0.395500	0.771400
O521	O52	0.028400	0.386600	0.691900
O531	O53	0.993500	0.403000	0.874300
O541	O54	0.870000	0.318300	0.762600
P191	P19	0.552000	0.395500	0.228600
O551	O55	0.471600	0.386600	0.308100
O561	O56	0.506500	0.403000	0.125700
O571	O57	0.630000	0.318300	0.237400
P201	P20	0.052000	0.895500	0.728600
O581	O58	0.971600	0.886600	0.808100
O591	O59	0.006500	0.903000	0.625700
O601	O60	0.130000	0.818300	0.737400
P211	P21	0.948000	0.604500	0.728600
O611	O61	0.028400	0.613400	0.808100
O621	O62	0.993500	0.597000	0.625700
O631	O63	0.870000	0.681700	0.737400
P221	P22	0.448000	0.104500	0.228600
O641	O64	0.528400	0.113400	0.308100
O651	O65	0.493500	0.097000	0.125700
O661	O66	0.370000	0.181700	0.237400
P231	P23	0.052000	0.104500	0.771400
O671	O67	0.971600	0.113400	0.691900
O681	O68	0.006500	0.097000	0.874300
O691	O69	0.130000	0.181700	0.762600
P241	P24	0.552000	0.604500	0.271400
O701	O70	0.471600	0.613400	0.191900
O711	O71	0.506500	0.597000	0.374300
O721	O72	0.630000	0.681700	0.262600
Er11	Er1	0.185130	0.685130	0.814870
Er21	Er2	0.031640	0.531640	0.968360
Er31	Er3	0.685130	0.185130	0.314870
Er41	Er4	0.531640	0.031640	0.468360
Er51	Er5	0.314870	0.314870	0.314870
Er61	Er6	0.468360	0.468360	0.468360
Er71	Er7	0.814870	0.814870	0.814870
Er81	Er8	0.968360	0.968360	0.968360
Er91	Er9	0.814870	0.185130	0.685130
Er101	Er10	0.968360	0.031640	0.531640
Er111	Er11	0.314870	0.685130	0.185130
Er121	Er12	0.468360	0.531640	0.031640
Er131	Er13	0.685130	0.814870	0.185130
Er141	Er14	0.531640	0.968360	0.031640
Er151	Er15	0.185130	0.314870	0.685130
Er161	Er16	0.031640	0.468360	0.531640
O731	O73	0.250000	0.393200	0.000000
O741	O74	0.250000	0.606800	0.500000
O751	O75	0.750000	0.893200	0.500000
O761	O76	0.750000	0.106800	0.000000
O771	O77	0.000000	0.250000	0.393200
O781	O78	0.500000	0.250000	0.606800
O791	O79	0.500000	0.750000	0.893200
O801	O80	0.000000	0.750000	0.106800
O811	O81	0.393200	0.000000	0.250000
O821	O82	0.606800	0.500000	0.250000
O831	O83	0.893200	0.500000	0.750000
O841	O84	0.106800	0.000000	0.750000
