data_YISFEL_clean_PM
_symmetry_space_group_name_H-M	'P1'
_cell_length_a	6.349000
_cell_length_b	10.258000
_cell_length_c	15.737000
_cell_angle_alpha	106.790000
_cell_angle_beta	93.660000
_cell_angle_gamma	103.560000
_symmetry_Int_Tables_number 1

loop_
_symmetry_equiv_pos_as_xyz
'x,y,z'

loop_
_atom_site_label
_atom_site_type_symbol
_atom_site_fract_x
_atom_site_fract_y
_atom_site_fract_z
Sr11	Sr1	0.986540	0.077800	0.649600
Sr21	Sr2	0.694040	0.732540	0.736270
Sr31	Sr3	0.013460	0.922200	0.350400
Sr41	Sr4	0.305960	0.267460	0.263730
Cu11	Cu1	0.000000	0.500000	0.000000
Cu21	Cu2	0.500000	0.500000	0.500000
C11	C1	0.053100	0.276220	0.871790
C21	C2	0.901300	0.340390	0.827480
C31	C3	0.756570	0.738630	0.489260
C41	C4	0.684850	0.637130	0.392360
C51	C5	0.430780	0.954310	0.678760
C61	C6	0.248720	0.849440	0.706550
C71	C7	0.946900	0.723780	0.128210
C81	C8	0.098700	0.659610	0.172520
C91	C9	0.243430	0.261370	0.510740
C101	C10	0.315150	0.362870	0.607640
C111	C11	0.569220	0.045690	0.321240
C121	C12	0.751280	0.150560	0.293450
O11	O1	0.116600	0.336120	0.955270
O21	O2	0.853600	0.446920	0.878290
O31	O3	0.108900	0.173570	0.825020
O41	O4	0.842410	0.292650	0.746430
O51	O5	0.692080	0.688440	0.550370
O61	O6	0.434580	0.485360	0.615500
O71	O7	0.868970	0.861000	0.499660
O81	O8	0.746380	0.676050	0.328570
O91	O9	0.299730	0.751700	0.726770
O101	O10	0.622250	0.944240	0.689840
O111	O11	0.368800	0.039040	0.646170
O121	O12	0.062310	0.871190	0.706020
O131	O13	0.883400	0.663880	0.044730
O141	O14	0.146400	0.553080	0.121710
O151	O15	0.891100	0.826430	0.174980
O161	O16	0.157590	0.707350	0.253570
O171	O17	0.307920	0.311560	0.449630
O181	O18	0.565420	0.514640	0.384500
O191	O19	0.131030	0.139000	0.500340
O201	O20	0.253620	0.323950	0.671430
O211	O21	0.700270	0.248300	0.273230
O221	O22	0.377750	0.055760	0.310160
O231	O23	0.631200	0.960960	0.353830
O241	O24	0.937690	0.128810	0.293980
