data_YITHOA_clean_PM
_symmetry_space_group_name_H-M	'P1'
_cell_length_a	7.643900
_cell_length_b	22.013000
_cell_length_c	6.155600
_cell_angle_alpha	90.000000
_cell_angle_beta	90.000000
_cell_angle_gamma	90.000000
_symmetry_Int_Tables_number 1

loop_
_symmetry_equiv_pos_as_xyz
'x,y,z'

loop_
_atom_site_label
_atom_site_type_symbol
_atom_site_fract_x
_atom_site_fract_y
_atom_site_fract_z
Ce11	Ce1	0.479320	0.354230	0.439180
O11	O1	0.384700	0.461680	0.581200
O21	O2	0.600700	0.456980	0.311600
O31	O3	0.527400	0.345610	0.833600
O41	O4	0.686600	0.336620	0.137600
O51	O5	0.787600	0.361980	0.584600
H11	H1	0.845700	0.390500	0.538600
O61	O6	0.841700	0.236740	0.783000
H21	H2	0.763400	0.243500	0.695300
O71	O7	0.193200	0.335700	0.633000
O81	O8	0.085000	0.250590	0.493300
C11	C1	0.669900	0.343100	0.936400
C21	C2	0.837500	0.349100	0.800800
H31	H3	0.907800	0.382800	0.857200
C31	C3	0.945500	0.290100	0.810500
H41	H4	0.004300	0.288000	0.951800
C41	C4	0.085700	0.292400	0.630700
Ce21	Ce2	0.520680	0.645770	0.439180
O91	O9	0.615300	0.538320	0.581200
O101	O10	0.399300	0.543020	0.311600
O111	O11	0.472600	0.654390	0.833600
O121	O12	0.313400	0.663380	0.137600
O131	O13	0.212400	0.638020	0.584600
H51	H5	0.154300	0.609500	0.538600
O141	O14	0.158300	0.763260	0.783000
H61	H6	0.236600	0.756500	0.695300
O151	O15	0.806800	0.664300	0.633000
O161	O16	0.915000	0.749410	0.493300
C51	C5	0.330100	0.656900	0.936400
C61	C6	0.162500	0.650900	0.800800
H71	H7	0.092200	0.617200	0.857200
C71	C7	0.054500	0.709900	0.810500
H81	H8	0.995700	0.712000	0.951800
C81	C8	0.914300	0.707600	0.630700
Ce31	Ce3	0.020680	0.854230	0.560820
O171	O17	0.115300	0.961680	0.418800
O181	O18	0.899300	0.956980	0.688400
O191	O19	0.972600	0.845610	0.166400
O201	O20	0.813400	0.836620	0.862400
O211	O21	0.712400	0.861980	0.415400
H91	H9	0.654300	0.890500	0.461400
O221	O22	0.658300	0.736740	0.217000
H101	H10	0.736600	0.743500	0.304700
O231	O23	0.306800	0.835700	0.367000
O241	O24	0.415000	0.750590	0.506700
C91	C9	0.830100	0.843100	0.063600
C101	C10	0.662500	0.849100	0.199200
H111	H11	0.592200	0.882800	0.142800
C111	C11	0.554500	0.790100	0.189500
H121	H12	0.495700	0.788000	0.048200
C121	C12	0.414300	0.792400	0.369300
Ce41	Ce4	0.979320	0.145770	0.560820
O251	O25	0.884700	0.038320	0.418800
O261	O26	0.100700	0.043020	0.688400
O271	O27	0.027400	0.154390	0.166400
O281	O28	0.186600	0.163380	0.862400
O291	O29	0.287600	0.138020	0.415400
H131	H13	0.345700	0.109500	0.461400
O301	O30	0.341700	0.263260	0.217000
H141	H14	0.263400	0.256500	0.304700
O311	O31	0.693200	0.164300	0.367000
O321	O32	0.585000	0.249410	0.506700
C131	C13	0.169900	0.156900	0.063600
C141	C14	0.337500	0.150900	0.199200
H151	H15	0.407800	0.117200	0.142800
C151	C15	0.445500	0.209900	0.189500
H161	H16	0.504300	0.212000	0.048200
C161	C16	0.585700	0.207600	0.369300
S11	S1	0.500000	0.500000	0.446600
S21	S2	0.000000	0.000000	0.553400
