data_YITHIU01_clean_PM
_symmetry_space_group_name_H-M	'P1'
_cell_length_a	21.963000
_cell_length_b	7.657700
_cell_length_c	6.168900
_cell_angle_alpha	90.000000
_cell_angle_beta	91.480000
_cell_angle_gamma	90.000000
_symmetry_Int_Tables_number 1

loop_
_symmetry_equiv_pos_as_xyz
'x,y,z'

loop_
_atom_site_label
_atom_site_type_symbol
_atom_site_fract_x
_atom_site_fract_y
_atom_site_fract_z
Ce11	Ce1	0.354680	0.746590	0.949940
O11	O1	0.456100	0.638300	0.114200
O21	O2	0.462700	0.855800	0.851400
O31	O3	0.344000	0.798900	0.344500
O41	O4	0.340900	0.955500	0.646600
O51	O5	0.362300	0.055900	0.097200
H11	H1	0.393800	0.112900	0.061300
O61	O6	0.236790	0.109200	0.282500
H21	H2	0.245100	0.024200	0.198600
O71	O7	0.335300	0.461800	0.139200
O81	O8	0.249900	0.354500	0.995600
C11	C1	0.344400	0.939200	0.445300
C21	C2	0.349600	0.107400	0.309300
H31	H3	0.383200	0.178900	0.367500
C31	C3	0.290300	0.212300	0.313800
H41	H4	0.288200	0.270200	0.455100
C41	C4	0.292900	0.354300	0.137200
O91	O9	0.388500	0.547800	0.643100
H51	H5	0.416200	0.491500	0.575800
H61	H6	0.366700	0.613000	0.558000
Ce21	Ce2	0.854680	0.246590	0.949940
O101	O10	0.956100	0.138300	0.114200
O111	O11	0.962700	0.355800	0.851400
O121	O12	0.844000	0.298900	0.344500
O131	O13	0.840900	0.455500	0.646600
O141	O14	0.862300	0.555900	0.097200
H71	H7	0.893800	0.612900	0.061300
O151	O15	0.736790	0.609200	0.282500
H81	H8	0.745100	0.524200	0.198600
O161	O16	0.835300	0.961800	0.139200
O171	O17	0.749900	0.854500	0.995600
C51	C5	0.844400	0.439200	0.445300
C61	C6	0.849600	0.607400	0.309300
H91	H9	0.883200	0.678900	0.367500
C71	C7	0.790300	0.712300	0.313800
H101	H10	0.788200	0.770200	0.455100
C81	C8	0.792900	0.854300	0.137200
O181	O18	0.888500	0.047800	0.643100
H111	H11	0.916200	0.991500	0.575800
H121	H12	0.866700	0.113000	0.558000
Ce31	Ce3	0.645320	0.746590	0.050060
O191	O19	0.543900	0.638300	0.885800
O201	O20	0.537300	0.855800	0.148600
O211	O21	0.656000	0.798900	0.655500
O221	O22	0.659100	0.955500	0.353400
O231	O23	0.637700	0.055900	0.902800
H131	H13	0.606200	0.112900	0.938700
O241	O24	0.763210	0.109200	0.717500
H141	H14	0.754900	0.024200	0.801400
O251	O25	0.664700	0.461800	0.860800
O261	O26	0.750100	0.354500	0.004400
C91	C9	0.655600	0.939200	0.554700
C101	C10	0.650400	0.107400	0.690700
H151	H15	0.616800	0.178900	0.632500
C111	C11	0.709700	0.212300	0.686200
H161	H16	0.711800	0.270200	0.544900
C121	C12	0.707100	0.354300	0.862800
O271	O27	0.611500	0.547800	0.356900
H171	H17	0.583800	0.491500	0.424200
H181	H18	0.633300	0.613000	0.442000
Ce41	Ce4	0.145320	0.246590	0.050060
O281	O28	0.043900	0.138300	0.885800
O291	O29	0.037300	0.355800	0.148600
O301	O30	0.156000	0.298900	0.655500
O311	O31	0.159100	0.455500	0.353400
O321	O32	0.137700	0.555900	0.902800
H191	H19	0.106200	0.612900	0.938700
O331	O33	0.263210	0.609200	0.717500
H201	H20	0.254900	0.524200	0.801400
O341	O34	0.164700	0.961800	0.860800
O351	O35	0.250100	0.854500	0.004400
C131	C13	0.155600	0.439200	0.554700
C141	C14	0.150400	0.607400	0.690700
H211	H21	0.116800	0.678900	0.632500
C151	C15	0.209700	0.712300	0.686200
H221	H22	0.211800	0.770200	0.544900
C161	C16	0.207100	0.854300	0.862800
O361	O36	0.111500	0.047800	0.356900
H231	H23	0.083800	0.991500	0.424200
H241	H24	0.133300	0.113000	0.442000
S11	S1	0.500000	0.745100	0.000000
S21	S2	0.000000	0.245100	0.000000
