data_YITHIU_clean_PM
_symmetry_space_group_name_H-M	'P1'
_cell_length_a	7.648600
_cell_length_b	22.019000
_cell_length_c	6.155000
_cell_angle_alpha	90.000000
_cell_angle_beta	90.000000
_cell_angle_gamma	90.000000
_symmetry_Int_Tables_number 1

loop_
_symmetry_equiv_pos_as_xyz
'x,y,z'

loop_
_atom_site_label
_atom_site_type_symbol
_atom_site_fract_x
_atom_site_fract_y
_atom_site_fract_z
Ce11	Ce1	0.479380	0.854220	0.560720
O11	O1	0.384700	0.961790	0.418500
O21	O2	0.601300	0.957190	0.687000
O31	O3	0.527400	0.845800	0.164900
O41	O4	0.686100	0.836760	0.863200
O51	O5	0.787800	0.862090	0.416600
H11	H1	0.859200	0.885300	0.471200
O61	O6	0.841600	0.736820	0.217300
H21	H2	0.763500	0.743600	0.305400
O71	O7	0.192700	0.835510	0.367800
O81	O8	0.086000	0.750430	0.506300
C11	C1	0.670100	0.843350	0.065300
C21	C2	0.837900	0.848940	0.199100
H31	H3	0.908200	0.882600	0.142400
C31	C3	0.945400	0.790230	0.189800
H41	H4	0.003500	0.788100	0.048100
C41	C4	0.086700	0.792190	0.367800
Ce21	Ce2	0.520620	0.145780	0.560720
O91	O9	0.615300	0.038210	0.418500
O101	O10	0.398700	0.042810	0.687000
O111	O11	0.472600	0.154200	0.164900
O121	O12	0.313900	0.163240	0.863200
O131	O13	0.212200	0.137910	0.416600
H51	H5	0.140800	0.114700	0.471200
O141	O14	0.158400	0.263180	0.217300
H61	H6	0.236500	0.256400	0.305400
O151	O15	0.807300	0.164490	0.367800
O161	O16	0.914000	0.249570	0.506300
C51	C5	0.329900	0.156650	0.065300
C61	C6	0.162100	0.151060	0.199100
H71	H7	0.091800	0.117400	0.142400
C71	C7	0.054600	0.209770	0.189800
H81	H8	0.996500	0.211900	0.048100
C81	C8	0.913300	0.207810	0.367800
Ce31	Ce3	0.020620	0.354220	0.439280
O171	O17	0.115300	0.461790	0.581500
O181	O18	0.898700	0.457190	0.313000
O191	O19	0.972600	0.345800	0.835100
O201	O20	0.813900	0.336760	0.136800
O211	O21	0.712200	0.362090	0.583400
H91	H9	0.640800	0.385300	0.528800
O221	O22	0.658400	0.236820	0.782700
H101	H10	0.736500	0.243600	0.694600
O231	O23	0.307300	0.335510	0.632200
O241	O24	0.414000	0.250430	0.493700
C91	C9	0.829900	0.343350	0.934700
C101	C10	0.662100	0.348940	0.800900
H111	H11	0.591800	0.382600	0.857600
C111	C11	0.554600	0.290230	0.810200
H121	H12	0.496500	0.288100	0.951900
C121	C12	0.413300	0.292190	0.632200
Ce41	Ce4	0.979380	0.645780	0.439280
O251	O25	0.884700	0.538210	0.581500
O261	O26	0.101300	0.542810	0.313000
O271	O27	0.027400	0.654200	0.835100
O281	O28	0.186100	0.663240	0.136800
O291	O29	0.287800	0.637910	0.583400
H131	H13	0.359200	0.614700	0.528800
O301	O30	0.341600	0.763180	0.782700
H141	H14	0.263500	0.756400	0.694600
O311	O31	0.692700	0.664490	0.632200
O321	O32	0.586000	0.749570	0.493700
C131	C13	0.170100	0.656650	0.934700
C141	C14	0.337900	0.651060	0.800900
H151	H15	0.408200	0.617400	0.857600
C151	C15	0.445400	0.709770	0.810200
H161	H16	0.503500	0.711900	0.951900
C161	C16	0.586700	0.707810	0.632200
S11	S1	0.500000	0.000000	0.553200
S21	S2	0.000000	0.500000	0.446800
