data_YIVNIC_clean_PM
_symmetry_space_group_name_H-M	'P1'
_cell_length_a	11.327300
_cell_length_b	11.574400
_cell_length_c	16.243400
_cell_angle_alpha	105.505000
_cell_angle_beta	110.406000
_cell_angle_gamma	90.000000
_symmetry_Int_Tables_number 1

loop_
_symmetry_equiv_pos_as_xyz
'x,y,z'

loop_
_atom_site_label
_atom_site_type_symbol
_atom_site_fract_x
_atom_site_fract_y
_atom_site_fract_z
V11	V1	0.764210	0.060310	0.710380
V21	V2	0.053830	0.439690	0.289620
V31	V3	0.946170	0.560310	0.710380
V41	V4	0.803010	0.818280	0.784820
V51	V5	0.196990	0.181720	0.215180
V61	V6	0.981810	0.318280	0.784820
V71	V7	0.235790	0.939690	0.289620
V81	V8	0.018190	0.681720	0.215180
Cu11	Cu1	0.000000	0.000000	0.000000
Cu21	Cu2	0.000000	0.500000	0.000000
Cu31	Cu3	0.000000	0.500000	0.500000
Cu41	Cu4	0.500000	0.000000	0.500000
H11	H1	0.687600	0.808200	0.555800
H21	H2	0.211300	0.809600	0.771800
H31	H3	0.318600	0.554200	0.409800
H41	H4	0.235400	0.683000	0.126400
H51	H5	0.729300	0.364000	0.416600
H61	H6	0.439500	0.690400	0.228200
H71	H7	0.806800	0.669800	0.938000
H81	H8	0.929000	0.750900	0.600400
H91	H9	0.312700	0.136000	0.583400
H101	H10	0.504500	0.138700	0.360200
H111	H11	0.781300	0.860400	0.311400
H121	H12	0.342100	0.351300	0.742400
H131	H13	0.400300	0.851300	0.742400
H141	H14	0.144300	0.361300	0.639800
H151	H15	0.071000	0.249100	0.399600
H161	H16	0.393400	0.325700	0.159600
H171	H17	0.193200	0.330200	0.062000
H181	H18	0.766200	0.825700	0.159600
H191	H19	0.687300	0.864000	0.416600
H201	H20	0.606600	0.674300	0.840400
H211	H21	0.788700	0.190400	0.228200
H221	H22	0.530100	0.360400	0.311400
H231	H23	0.469900	0.639600	0.688600
H241	H24	0.309900	0.385800	0.431000
H251	H25	0.121100	0.885800	0.431000
H261	H26	0.657900	0.648700	0.257600
H271	H27	0.908800	0.945800	0.590200
H281	H28	0.690100	0.614200	0.569000
H291	H29	0.270700	0.636000	0.583400
H301	H30	0.091200	0.054200	0.409800
H311	H31	0.599700	0.148700	0.257600
H321	H32	0.131800	0.691800	0.444200
H331	H33	0.891000	0.183000	0.126400
H341	H34	0.855700	0.638700	0.360200
H351	H35	0.312400	0.191800	0.444200
H361	H36	0.328600	0.749100	0.399600
H371	H37	0.131200	0.169800	0.938000
H381	H38	0.218700	0.139600	0.688600
H391	H39	0.560500	0.309600	0.771800
H401	H40	0.109000	0.817000	0.873600
H411	H41	0.495500	0.861300	0.639800
H421	H42	0.233800	0.174300	0.840400
H431	H43	0.764600	0.317000	0.873600
H441	H44	0.868200	0.308200	0.555800
H451	H45	0.878900	0.114200	0.569000
H461	H46	0.868800	0.830200	0.062000
H471	H47	0.671400	0.250900	0.600400
H481	H48	0.681400	0.445800	0.590200
C11	C1	0.085030	0.743900	0.474060
C21	C2	0.273590	0.079900	0.678580
C31	C3	0.380980	0.911200	0.710960
C41	C4	0.569130	0.506400	0.272660
C51	C5	0.498270	0.438500	0.506140
C61	C6	0.147340	0.095400	0.903480
C71	C7	0.714770	0.422400	0.383740
C81	C8	0.402860	0.722200	0.435720
C91	C9	0.914970	0.256100	0.525940
C101	C10	0.032860	0.222200	0.435720
C111	C11	0.726410	0.920100	0.321420
C121	C12	0.389030	0.243900	0.474060
C131	C13	0.791380	0.901000	0.154560
C141	C14	0.430870	0.493600	0.727340
C151	C15	0.597140	0.277800	0.564280
C161	C16	0.563590	0.082900	0.351380
C171	C17	0.441450	0.508600	0.206900
C181	C18	0.731810	0.390600	0.866020
C191	C19	0.787790	0.582900	0.351380
C201	C20	0.390630	0.614800	0.194860
C211	C21	0.804230	0.114800	0.194860
C221	C22	0.610970	0.756100	0.525940
C231	C23	0.404990	0.579900	0.678580
C241	C24	0.609370	0.385200	0.805140
C251	C25	0.501730	0.561500	0.493860
C261	C26	0.436410	0.917100	0.648620
C271	C27	0.243860	0.404600	0.096520
C281	C28	0.234550	0.991400	0.793100
C291	C29	0.967140	0.777800	0.564280
C301	C30	0.386680	0.360000	0.464960
C311	C31	0.613320	0.640000	0.535040
C321	C32	0.603960	0.395100	0.558320
C331	C33	0.865790	0.109400	0.133980
C341	C34	0.668970	0.922400	0.383740
C351	C35	0.852660	0.904600	0.096520
C361	C36	0.296470	0.993600	0.727340
C371	C37	0.992130	0.061500	0.493860
C381	C38	0.331030	0.077600	0.616260
C391	C39	0.212210	0.417100	0.648620
C401	C40	0.078280	0.860000	0.464960
C411	C41	0.954360	0.895100	0.558320
C421	C42	0.921720	0.140000	0.535040
C431	C43	0.756140	0.595400	0.903480
C441	C44	0.007870	0.938500	0.506140
C451	C45	0.268190	0.609400	0.133980
C461	C46	0.285230	0.577600	0.616260
C471	C47	0.595010	0.420100	0.321420
C481	C48	0.363180	0.401000	0.154560
C491	C49	0.558550	0.491400	0.793100
C501	C50	0.670020	0.588800	0.289040
C511	C51	0.765450	0.008600	0.206900
C521	C52	0.703530	0.006400	0.272660
C531	C53	0.208620	0.099000	0.845440
C541	C54	0.195770	0.885200	0.805140
C551	C55	0.329980	0.411200	0.710960
C561	C56	0.134210	0.890600	0.866020
C571	C57	0.619020	0.088800	0.289040
C581	C58	0.045640	0.104900	0.441680
C591	C59	0.636820	0.599000	0.845440
C601	C60	0.396040	0.604900	0.441680
N11	N1	0.108350	0.993300	0.914900
N21	N2	0.193450	0.506700	0.085100
N31	N3	0.492110	0.200500	0.522020
N41	N4	0.187720	0.497800	0.599240
N51	N5	0.029910	0.700500	0.522020
N61	N6	0.588480	0.002200	0.400760
N71	N7	0.970090	0.299500	0.477980
N81	N8	0.812280	0.502200	0.400760
N91	N9	0.411520	0.997800	0.599240
N101	N10	0.507890	0.799500	0.477980
N111	N11	0.891650	0.006700	0.085100
N121	N12	0.806550	0.493300	0.914900
O11	O1	0.885010	0.176200	0.734420
O21	O2	0.925800	0.526900	0.599400
O31	O3	0.123010	0.137000	0.101820
O41	O4	0.114990	0.823800	0.265580
O51	O5	0.021190	0.363000	0.898180
O61	O6	0.102200	0.572100	0.267000
O71	O7	0.074200	0.473100	0.400600
O81	O8	0.876990	0.863000	0.898180
O91	O9	0.897800	0.427900	0.733000
O101	O10	0.150590	0.323800	0.265580
O111	O11	0.835200	0.927900	0.733000
O121	O12	0.978810	0.637000	0.101820
O131	O13	0.673600	0.026900	0.599400
O141	O14	0.164800	0.072100	0.267000
O151	O15	0.849410	0.676200	0.734420
O161	O16	0.326400	0.973100	0.400600
