data_YIVZOU_clean_PM
_symmetry_space_group_name_H-M	'P1'
_cell_length_a	24.274200
_cell_length_b	16.125000
_cell_length_c	22.033100
_cell_angle_alpha	90.000000
_cell_angle_beta	100.220000
_cell_angle_gamma	90.000000
_symmetry_Int_Tables_number 1

loop_
_symmetry_equiv_pos_as_xyz
'x,y,z'

loop_
_atom_site_label
_atom_site_type_symbol
_atom_site_fract_x
_atom_site_fract_y
_atom_site_fract_z
Pr11	Pr1	0.258770	0.210540	0.595630
Si11	Si1	0.379550	0.273810	0.006700
C11	C1	0.357200	0.258800	0.922200
C21	C2	0.392900	0.233900	0.881900
H11	H1	0.430000	0.221800	0.898300
C31	C3	0.301500	0.269700	0.894300
H21	H2	0.275400	0.282900	0.919100
C41	C4	0.283300	0.261600	0.831400
H31	H3	0.246000	0.271300	0.814400
C51	C5	0.375400	0.226600	0.819200
H41	H4	0.400800	0.213000	0.793800
C61	C6	0.320000	0.239800	0.794700
C71	C7	0.299400	0.230700	0.725700
C81	C8	0.457600	0.275700	0.028000
C91	C9	0.487100	0.344400	0.050000
H51	H5	0.467700	0.393500	0.053100
C101	C10	0.488100	0.203800	0.025000
H61	H6	0.469200	0.155000	0.012100
C111	C11	0.545200	0.344100	0.068000
H71	H7	0.563800	0.392000	0.083800
C121	C12	0.546300	0.202300	0.040600
H81	H8	0.565700	0.153500	0.036400
C131	C13	0.575100	0.272600	0.062200
C141	C14	0.637900	0.274300	0.079300
C151	C15	0.351000	0.375600	0.026100
C161	C16	0.360200	0.443500	0.988000
H91	H9	0.380000	0.435800	0.956000
C171	C17	0.322700	0.390300	0.073300
H101	H10	0.315700	0.346500	0.098300
C181	C18	0.303700	0.471500	0.085100
H111	H11	0.286300	0.480900	0.118800
C191	C19	0.339100	0.522700	0.999000
H121	H12	0.344500	0.566700	0.973400
C201	C20	0.311100	0.535400	0.046600
C211	C21	0.289800	0.618700	0.058700
C221	C22	0.352800	0.188400	0.050000
C231	C23	0.322200	0.123100	0.022100
H131	H13	0.313900	0.121900	0.979200
C241	C24	0.366200	0.185700	0.113100
H141	H14	0.387900	0.228000	0.133900
C251	C25	0.348100	0.120900	0.146700
H151	H15	0.357400	0.120800	0.189500
C261	C26	0.302900	0.058800	0.054600
H161	H16	0.280800	0.017400	0.033400
C271	C27	0.316000	0.056100	0.116300
C281	C28	0.292400	0.986800	0.150300
O11	O1	0.334200	0.216600	0.690600
O21	O2	0.248100	0.237900	0.704700
O31	O3	0.665160	0.211300	0.065300
O41	O4	0.661380	0.336200	0.106700
O51	O5	0.283000	0.639000	0.112100
O61	O6	0.277100	0.670300	0.013800
O71	O7	0.300200	0.994900	0.209500
O81	O8	0.267200	0.929200	0.123000
Pr21	Pr2	0.758770	0.710540	0.595630
Si21	Si2	0.879550	0.773810	0.006700
C291	C29	0.857200	0.758800	0.922200
C301	C30	0.892900	0.733900	0.881900
H171	H17	0.930000	0.721800	0.898300
C311	C31	0.801500	0.769700	0.894300
H181	H18	0.775400	0.782900	0.919100
C321	C32	0.783300	0.761600	0.831400
H191	H19	0.746000	0.771300	0.814400
C331	C33	0.875400	0.726600	0.819200
H201	H20	0.900800	0.713000	0.793800
C341	C34	0.820000	0.739800	0.794700
C351	C35	0.799400	0.730700	0.725700
C361	C36	0.957600	0.775700	0.028000
C371	C37	0.987100	0.844400	0.050000
H211	H21	0.967700	0.893500	0.053100
C381	C38	0.988100	0.703800	0.025000
H221	H22	0.969200	0.655000	0.012100
C391	C39	0.045200	0.844100	0.068000
H231	H23	0.063800	0.892000	0.083800
C401	C40	0.046300	0.702300	0.040600
H241	H24	0.065700	0.653500	0.036400
C411	C41	0.075100	0.772600	0.062200
C421	C42	0.137900	0.774300	0.079300
C431	C43	0.851000	0.875600	0.026100
C441	C44	0.860200	0.943500	0.988000
H251	H25	0.880000	0.935800	0.956000
C451	C45	0.822700	0.890300	0.073300
H261	H26	0.815700	0.846500	0.098300
C461	C46	0.803700	0.971500	0.085100
H271	H27	0.786300	0.980900	0.118800
C471	C47	0.839100	0.022700	0.999000
H281	H28	0.844500	0.066700	0.973400
C481	C48	0.811100	0.035400	0.046600
C491	C49	0.789800	0.118700	0.058700
C501	C50	0.852800	0.688400	0.050000
C511	C51	0.822200	0.623100	0.022100
H291	H29	0.813900	0.621900	0.979200
C521	C52	0.866200	0.685700	0.113100
H301	H30	0.887900	0.728000	0.133900
C531	C53	0.848100	0.620900	0.146700
H311	H31	0.857400	0.620800	0.189500
C541	C54	0.802900	0.558800	0.054600
H321	H32	0.780800	0.517400	0.033400
C551	C55	0.816000	0.556100	0.116300
C561	C56	0.792400	0.486800	0.150300
O91	O9	0.834200	0.716600	0.690600
O101	O10	0.748100	0.737900	0.704700
O111	O11	0.165160	0.711300	0.065300
O121	O12	0.161380	0.836200	0.106700
O131	O13	0.783000	0.139000	0.112100
O141	O14	0.777100	0.170300	0.013800
O151	O15	0.800200	0.494900	0.209500
O161	O16	0.767200	0.429200	0.123000
Pr31	Pr3	0.741230	0.210540	0.904370
Si31	Si3	0.620450	0.273810	0.493300
C571	C57	0.642800	0.258800	0.577800
C581	C58	0.607100	0.233900	0.618100
H331	H33	0.570000	0.221800	0.601700
C591	C59	0.698500	0.269700	0.605700
H341	H34	0.724600	0.282900	0.580900
C601	C60	0.716700	0.261600	0.668600
H351	H35	0.754000	0.271300	0.685600
C611	C61	0.624600	0.226600	0.680800
H361	H36	0.599200	0.213000	0.706200
C621	C62	0.680000	0.239800	0.705300
C631	C63	0.700600	0.230700	0.774300
C641	C64	0.542400	0.275700	0.472000
C651	C65	0.512900	0.344400	0.450000
H371	H37	0.532300	0.393500	0.446900
C661	C66	0.511900	0.203800	0.475000
H381	H38	0.530800	0.155000	0.487900
C671	C67	0.454800	0.344100	0.432000
H391	H39	0.436200	0.392000	0.416200
C681	C68	0.453700	0.202300	0.459400
H401	H40	0.434300	0.153500	0.463600
C691	C69	0.424900	0.272600	0.437800
C701	C70	0.362100	0.274300	0.420700
C711	C71	0.649000	0.375600	0.473900
C721	C72	0.639800	0.443500	0.512000
H411	H41	0.620000	0.435800	0.544000
C731	C73	0.677300	0.390300	0.426700
H421	H42	0.684300	0.346500	0.401700
C741	C74	0.696300	0.471500	0.414900
H431	H43	0.713700	0.480900	0.381200
C751	C75	0.660900	0.522700	0.501000
H441	H44	0.655500	0.566700	0.526600
C761	C76	0.688900	0.535400	0.453400
C771	C77	0.710200	0.618700	0.441300
C781	C78	0.647200	0.188400	0.450000
C791	C79	0.677800	0.123100	0.477900
H451	H45	0.686100	0.121900	0.520800
C801	C80	0.633800	0.185700	0.386900
H461	H46	0.612100	0.228000	0.366100
C811	C81	0.651900	0.120900	0.353300
H471	H47	0.642600	0.120800	0.310500
C821	C82	0.697100	0.058800	0.445400
H481	H48	0.719200	0.017400	0.466600
C831	C83	0.684000	0.056100	0.383700
C841	C84	0.707600	0.986800	0.349700
O171	O17	0.665800	0.216600	0.809400
O181	O18	0.751900	0.237900	0.795300
O191	O19	0.334840	0.211300	0.434700
O201	O20	0.338620	0.336200	0.393300
O211	O21	0.717000	0.639000	0.387900
O221	O22	0.722900	0.670300	0.486200
O231	O23	0.699800	0.994900	0.290500
O241	O24	0.732800	0.929200	0.377000
Pr41	Pr4	0.241230	0.710540	0.904370
Si41	Si4	0.120450	0.773810	0.493300
C851	C85	0.142800	0.758800	0.577800
C861	C86	0.107100	0.733900	0.618100
H491	H49	0.070000	0.721800	0.601700
C871	C87	0.198500	0.769700	0.605700
H501	H50	0.224600	0.782900	0.580900
C881	C88	0.216700	0.761600	0.668600
H511	H51	0.254000	0.771300	0.685600
C891	C89	0.124600	0.726600	0.680800
H521	H52	0.099200	0.713000	0.706200
C901	C90	0.180000	0.739800	0.705300
C911	C91	0.200600	0.730700	0.774300
C921	C92	0.042400	0.775700	0.472000
C931	C93	0.012900	0.844400	0.450000
H531	H53	0.032300	0.893500	0.446900
C941	C94	0.011900	0.703800	0.475000
H541	H54	0.030800	0.655000	0.487900
C951	C95	0.954800	0.844100	0.432000
H551	H55	0.936200	0.892000	0.416200
C961	C96	0.953700	0.702300	0.459400
H561	H56	0.934300	0.653500	0.463600
C971	C97	0.924900	0.772600	0.437800
C981	C98	0.862100	0.774300	0.420700
C991	C99	0.149000	0.875600	0.473900
C1001	C100	0.139800	0.943500	0.512000
H571	H57	0.120000	0.935800	0.544000
C1011	C101	0.177300	0.890300	0.426700
H581	H58	0.184300	0.846500	0.401700
C1021	C102	0.196300	0.971500	0.414900
H591	H59	0.213700	0.980900	0.381200
C1031	C103	0.160900	0.022700	0.501000
H601	H60	0.155500	0.066700	0.526600
C1041	C104	0.188900	0.035400	0.453400
C1051	C105	0.210200	0.118700	0.441300
C1061	C106	0.147200	0.688400	0.450000
C1071	C107	0.177800	0.623100	0.477900
H611	H61	0.186100	0.621900	0.520800
C1081	C108	0.133800	0.685700	0.386900
H621	H62	0.112100	0.728000	0.366100
C1091	C109	0.151900	0.620900	0.353300
H631	H63	0.142600	0.620800	0.310500
C1101	C110	0.197100	0.558800	0.445400
H641	H64	0.219200	0.517400	0.466600
C1111	C111	0.184000	0.556100	0.383700
C1121	C112	0.207600	0.486800	0.349700
O251	O25	0.165800	0.716600	0.809400
O261	O26	0.251900	0.737900	0.795300
O271	O27	0.834840	0.711300	0.434700
O281	O28	0.838620	0.836200	0.393300
O291	O29	0.217000	0.139000	0.387900
O301	O30	0.222900	0.170300	0.486200
O311	O31	0.199800	0.494900	0.290500
O321	O32	0.232800	0.429200	0.377000
Pr51	Pr5	0.741230	0.789460	0.404370
Si51	Si5	0.620450	0.726190	0.993300
C1131	C113	0.642800	0.741200	0.077800
C1141	C114	0.607100	0.766100	0.118100
H651	H65	0.570000	0.778200	0.101700
C1151	C115	0.698500	0.730300	0.105700
H661	H66	0.724600	0.717100	0.080900
C1161	C116	0.716700	0.738400	0.168600
H671	H67	0.754000	0.728700	0.185600
C1171	C117	0.624600	0.773400	0.180800
H681	H68	0.599200	0.787000	0.206200
C1181	C118	0.680000	0.760200	0.205300
C1191	C119	0.700600	0.769300	0.274300
C1201	C120	0.542400	0.724300	0.972000
C1211	C121	0.512900	0.655600	0.950000
H691	H69	0.532300	0.606500	0.946900
C1221	C122	0.511900	0.796200	0.975000
H701	H70	0.530800	0.845000	0.987900
C1231	C123	0.454800	0.655900	0.932000
H711	H71	0.436200	0.608000	0.916200
C1241	C124	0.453700	0.797700	0.959400
H721	H72	0.434300	0.846500	0.963600
C1251	C125	0.424900	0.727400	0.937800
C1261	C126	0.362100	0.725700	0.920700
C1271	C127	0.649000	0.624400	0.973900
C1281	C128	0.639800	0.556500	0.012000
H731	H73	0.620000	0.564200	0.044000
C1291	C129	0.677300	0.609700	0.926700
H741	H74	0.684300	0.653500	0.901700
C1301	C130	0.696300	0.528500	0.914900
H751	H75	0.713700	0.519100	0.881200
C1311	C131	0.660900	0.477300	0.001000
H761	H76	0.655500	0.433300	0.026600
C1321	C132	0.688900	0.464600	0.953400
C1331	C133	0.710200	0.381300	0.941300
C1341	C134	0.647200	0.811600	0.950000
C1351	C135	0.677800	0.876900	0.977900
H771	H77	0.686100	0.878100	0.020800
C1361	C136	0.633800	0.814300	0.886900
H781	H78	0.612100	0.772000	0.866100
C1371	C137	0.651900	0.879100	0.853300
H791	H79	0.642600	0.879200	0.810500
C1381	C138	0.697100	0.941200	0.945400
H801	H80	0.719200	0.982600	0.966600
C1391	C139	0.684000	0.943900	0.883700
C1401	C140	0.707600	0.013200	0.849700
O331	O33	0.665800	0.783400	0.309400
O341	O34	0.751900	0.762100	0.295300
O351	O35	0.334840	0.788700	0.934700
O361	O36	0.338620	0.663800	0.893300
O371	O37	0.717000	0.361000	0.887900
O381	O38	0.722900	0.329700	0.986200
O391	O39	0.699800	0.005100	0.790500
O401	O40	0.732800	0.070800	0.877000
Pr61	Pr6	0.241230	0.289460	0.404370
Si61	Si6	0.120450	0.226190	0.993300
C1411	C141	0.142800	0.241200	0.077800
C1421	C142	0.107100	0.266100	0.118100
H811	H81	0.070000	0.278200	0.101700
C1431	C143	0.198500	0.230300	0.105700
H821	H82	0.224600	0.217100	0.080900
C1441	C144	0.216700	0.238400	0.168600
H831	H83	0.254000	0.228700	0.185600
C1451	C145	0.124600	0.273400	0.180800
H841	H84	0.099200	0.287000	0.206200
C1461	C146	0.180000	0.260200	0.205300
C1471	C147	0.200600	0.269300	0.274300
C1481	C148	0.042400	0.224300	0.972000
C1491	C149	0.012900	0.155600	0.950000
H851	H85	0.032300	0.106500	0.946900
C1501	C150	0.011900	0.296200	0.975000
H861	H86	0.030800	0.345000	0.987900
C1511	C151	0.954800	0.155900	0.932000
H871	H87	0.936200	0.108000	0.916200
C1521	C152	0.953700	0.297700	0.959400
H881	H88	0.934300	0.346500	0.963600
C1531	C153	0.924900	0.227400	0.937800
C1541	C154	0.862100	0.225700	0.920700
C1551	C155	0.149000	0.124400	0.973900
C1561	C156	0.139800	0.056500	0.012000
H891	H89	0.120000	0.064200	0.044000
C1571	C157	0.177300	0.109700	0.926700
H901	H90	0.184300	0.153500	0.901700
C1581	C158	0.196300	0.028500	0.914900
H911	H91	0.213700	0.019100	0.881200
C1591	C159	0.160900	0.977300	0.001000
H921	H92	0.155500	0.933300	0.026600
C1601	C160	0.188900	0.964600	0.953400
C1611	C161	0.210200	0.881300	0.941300
C1621	C162	0.147200	0.311600	0.950000
C1631	C163	0.177800	0.376900	0.977900
H931	H93	0.186100	0.378100	0.020800
C1641	C164	0.133800	0.314300	0.886900
H941	H94	0.112100	0.272000	0.866100
C1651	C165	0.151900	0.379100	0.853300
H951	H95	0.142600	0.379200	0.810500
C1661	C166	0.197100	0.441200	0.945400
H961	H96	0.219200	0.482600	0.966600
C1671	C167	0.184000	0.443900	0.883700
C1681	C168	0.207600	0.513200	0.849700
O411	O41	0.165800	0.283400	0.309400
O421	O42	0.251900	0.262100	0.295300
O431	O43	0.834840	0.288700	0.934700
O441	O44	0.838620	0.163800	0.893300
O451	O45	0.217000	0.861000	0.887900
O461	O46	0.222900	0.829700	0.986200
O471	O47	0.199800	0.505100	0.790500
O481	O48	0.232800	0.570800	0.877000
Pr71	Pr7	0.258770	0.789460	0.095630
Si71	Si7	0.379550	0.726190	0.506700
C1691	C169	0.357200	0.741200	0.422200
C1701	C170	0.392900	0.766100	0.381900
H971	H97	0.430000	0.778200	0.398300
C1711	C171	0.301500	0.730300	0.394300
H981	H98	0.275400	0.717100	0.419100
C1721	C172	0.283300	0.738400	0.331400
H991	H99	0.246000	0.728700	0.314400
C1731	C173	0.375400	0.773400	0.319200
H1001	H100	0.400800	0.787000	0.293800
C1741	C174	0.320000	0.760200	0.294700
C1751	C175	0.299400	0.769300	0.225700
C1761	C176	0.457600	0.724300	0.528000
C1771	C177	0.487100	0.655600	0.550000
H1011	H101	0.467700	0.606500	0.553100
C1781	C178	0.488100	0.796200	0.525000
H1021	H102	0.469200	0.845000	0.512100
C1791	C179	0.545200	0.655900	0.568000
H1031	H103	0.563800	0.608000	0.583800
C1801	C180	0.546300	0.797700	0.540600
H1041	H104	0.565700	0.846500	0.536400
C1811	C181	0.575100	0.727400	0.562200
C1821	C182	0.637900	0.725700	0.579300
C1831	C183	0.351000	0.624400	0.526100
C1841	C184	0.360200	0.556500	0.488000
H1051	H105	0.380000	0.564200	0.456000
C1851	C185	0.322700	0.609700	0.573300
H1061	H106	0.315700	0.653500	0.598300
C1861	C186	0.303700	0.528500	0.585100
H1071	H107	0.286300	0.519100	0.618800
C1871	C187	0.339100	0.477300	0.499000
H1081	H108	0.344500	0.433300	0.473400
C1881	C188	0.311100	0.464600	0.546600
C1891	C189	0.289800	0.381300	0.558700
C1901	C190	0.352800	0.811600	0.550000
C1911	C191	0.322200	0.876900	0.522100
H1091	H109	0.313900	0.878100	0.479200
C1921	C192	0.366200	0.814300	0.613100
H1101	H110	0.387900	0.772000	0.633900
C1931	C193	0.348100	0.879100	0.646700
H1111	H111	0.357400	0.879200	0.689500
C1941	C194	0.302900	0.941200	0.554600
H1121	H112	0.280800	0.982600	0.533400
C1951	C195	0.316000	0.943900	0.616300
C1961	C196	0.292400	0.013200	0.650300
O491	O49	0.334200	0.783400	0.190600
O501	O50	0.248100	0.762100	0.204700
O511	O51	0.665160	0.788700	0.565300
O521	O52	0.661380	0.663800	0.606700
O531	O53	0.283000	0.361000	0.612100
O541	O54	0.277100	0.329700	0.513800
O551	O55	0.300200	0.005100	0.709500
O561	O56	0.267200	0.070800	0.623000
Pr81	Pr8	0.758770	0.289460	0.095630
Si81	Si8	0.879550	0.226190	0.506700
C1971	C197	0.857200	0.241200	0.422200
C1981	C198	0.892900	0.266100	0.381900
H1131	H113	0.930000	0.278200	0.398300
C1991	C199	0.801500	0.230300	0.394300
H1141	H114	0.775400	0.217100	0.419100
C2001	C200	0.783300	0.238400	0.331400
H1151	H115	0.746000	0.228700	0.314400
C2011	C201	0.875400	0.273400	0.319200
H1161	H116	0.900800	0.287000	0.293800
C2021	C202	0.820000	0.260200	0.294700
C2031	C203	0.799400	0.269300	0.225700
C2041	C204	0.957600	0.224300	0.528000
C2051	C205	0.987100	0.155600	0.550000
H1171	H117	0.967700	0.106500	0.553100
C2061	C206	0.988100	0.296200	0.525000
H1181	H118	0.969200	0.345000	0.512100
C2071	C207	0.045200	0.155900	0.568000
H1191	H119	0.063800	0.108000	0.583800
C2081	C208	0.046300	0.297700	0.540600
H1201	H120	0.065700	0.346500	0.536400
C2091	C209	0.075100	0.227400	0.562200
C2101	C210	0.137900	0.225700	0.579300
C2111	C211	0.851000	0.124400	0.526100
C2121	C212	0.860200	0.056500	0.488000
H1211	H121	0.880000	0.064200	0.456000
C2131	C213	0.822700	0.109700	0.573300
H1221	H122	0.815700	0.153500	0.598300
C2141	C214	0.803700	0.028500	0.585100
H1231	H123	0.786300	0.019100	0.618800
C2151	C215	0.839100	0.977300	0.499000
H1241	H124	0.844500	0.933300	0.473400
C2161	C216	0.811100	0.964600	0.546600
C2171	C217	0.789800	0.881300	0.558700
C2181	C218	0.852800	0.311600	0.550000
C2191	C219	0.822200	0.376900	0.522100
H1251	H125	0.813900	0.378100	0.479200
C2201	C220	0.866200	0.314300	0.613100
H1261	H126	0.887900	0.272000	0.633900
C2211	C221	0.848100	0.379100	0.646700
H1271	H127	0.857400	0.379200	0.689500
C2221	C222	0.802900	0.441200	0.554600
H1281	H128	0.780800	0.482600	0.533400
C2231	C223	0.816000	0.443900	0.616300
C2241	C224	0.792400	0.513200	0.650300
O571	O57	0.834200	0.283400	0.190600
O581	O58	0.748100	0.262100	0.204700
O591	O59	0.165160	0.288700	0.565300
O601	O60	0.161380	0.163800	0.606700
O611	O61	0.783000	0.861000	0.612100
O621	O62	0.777100	0.829700	0.513800
O631	O63	0.800200	0.505100	0.709500
O641	O64	0.767200	0.570800	0.623000
