data_YIWLIZ_clean_PM
_symmetry_space_group_name_H-M	'P1'
_cell_length_a	8.778000
_cell_length_b	8.778000
_cell_length_c	30.640000
_cell_angle_alpha	90.000000
_cell_angle_beta	90.000000
_cell_angle_gamma	120.000000
_symmetry_Int_Tables_number 1

loop_
_symmetry_equiv_pos_as_xyz
'x,y,z'

loop_
_atom_site_label
_atom_site_type_symbol
_atom_site_fract_x
_atom_site_fract_y
_atom_site_fract_z
Cd11	Cd1	0.000000	0.000000	0.000000
Cd21	Cd2	0.666670	0.333330	0.333330
Cd31	Cd3	0.333330	0.666670	0.666670
Cd41	Cd4	0.333330	0.666670	0.074890
C11	C1	0.333330	0.666670	0.148700
Cd51	Cd5	0.000000	0.000000	0.408220
C21	C2	0.000000	0.000000	0.482030
Cd61	Cd6	0.666670	0.333330	0.741560
C31	C3	0.666670	0.333330	0.815370
Cd71	Cd7	0.666670	0.333330	0.925110
C41	C4	0.666670	0.333330	0.851300
Cd81	Cd8	0.333330	0.666670	0.258440
C51	C5	0.333330	0.666670	0.184630
Cd91	Cd9	0.000000	0.000000	0.591780
C61	C6	0.000000	0.000000	0.517970
N11	N1	0.127100	0.872900	0.043600
C71	C7	0.193400	0.806600	0.055000
N21	N2	0.793770	0.206230	0.376930
C81	C8	0.860070	0.139930	0.388330
N31	N3	0.460430	0.539570	0.710270
C91	C9	0.526730	0.473270	0.721670
N41	N4	0.127100	0.254200	0.043600
C101	C10	0.193400	0.386800	0.055000
N51	N5	0.793770	0.587530	0.376930
C111	C11	0.860070	0.720130	0.388330
N61	N6	0.460430	0.920870	0.710270
C121	C12	0.526730	0.053470	0.721670
N71	N7	0.745800	0.872900	0.043600
C131	C13	0.613200	0.806600	0.055000
N81	N8	0.412470	0.206230	0.376930
C141	C14	0.279870	0.139930	0.388330
N91	N9	0.079130	0.539570	0.710270
C151	C15	0.946530	0.473270	0.721670
N101	N10	0.872900	0.127100	0.956400
C161	C16	0.806600	0.193400	0.945000
N111	N11	0.539570	0.460430	0.289730
C171	C17	0.473270	0.526730	0.278330
N121	N12	0.206230	0.793770	0.623070
C181	C18	0.139930	0.860070	0.611670
N131	N13	0.254200	0.127100	0.956400
C191	C19	0.386800	0.193400	0.945000
N141	N14	0.920870	0.460430	0.289730
C201	C20	0.053470	0.526730	0.278330
N151	N15	0.587530	0.793770	0.623070
C211	C21	0.720130	0.860070	0.611670
N161	N16	0.872900	0.745800	0.956400
C221	C22	0.806600	0.613200	0.945000
N171	N17	0.539570	0.079130	0.289730
C231	C23	0.473270	0.946530	0.278330
N181	N18	0.206230	0.412470	0.623070
C241	C24	0.139930	0.279870	0.611670
