data_YIWLUL_clean_PM
_symmetry_space_group_name_H-M	'P1'
_cell_length_a	11.115000
_cell_length_b	13.287000
_cell_length_c	8.664000
_cell_angle_alpha	90.000000
_cell_angle_beta	90.000000
_cell_angle_gamma	90.000000
_symmetry_Int_Tables_number 1

loop_
_symmetry_equiv_pos_as_xyz
'x,y,z'

loop_
_atom_site_label
_atom_site_type_symbol
_atom_site_fract_x
_atom_site_fract_y
_atom_site_fract_z
N11	N1	0.096000	0.951900	0.191000
N21	N2	0.361000	0.058000	0.190000
C11	C1	0.035000	0.937200	0.293000
C21	C2	0.413000	0.089000	0.289000
N31	N3	0.904000	0.451900	0.309000
N41	N4	0.639000	0.558000	0.310000
C31	C3	0.965000	0.437200	0.207000
C41	C4	0.587000	0.589000	0.211000
N51	N5	0.904000	0.451900	0.691000
N61	N6	0.639000	0.558000	0.690000
C51	C5	0.965000	0.437200	0.793000
C61	C6	0.587000	0.589000	0.789000
N71	N7	0.096000	0.951900	0.809000
N81	N8	0.361000	0.058000	0.810000
C71	C7	0.035000	0.937200	0.707000
C81	C8	0.413000	0.089000	0.711000
Cd11	Cd1	0.228990	0.000000	0.000000
N91	N9	0.139000	0.161000	0.000000
N101	N10	0.333000	0.849000	0.000000
C91	C9	0.117000	0.240000	0.000000
C101	C10	0.390000	0.776000	0.000000
Cd21	Cd2	0.771010	0.500000	0.500000
N111	N11	0.861000	0.661000	0.500000
N121	N12	0.667000	0.349000	0.500000
C111	C11	0.883000	0.740000	0.500000
C121	C12	0.610000	0.276000	0.500000
Cd31	Cd3	0.926000	0.903200	0.500000
Cd41	Cd4	0.506700	0.135000	0.500000
C131	C13	0.757000	0.986000	0.500000
C141	C14	0.672000	0.035000	0.500000
Cd51	Cd5	0.074000	0.403200	0.000000
Cd61	Cd6	0.493300	0.635000	0.000000
C151	C15	0.243000	0.486000	0.000000
C161	C16	0.328000	0.535000	0.000000
