data_YIWNIB_clean_PM
_symmetry_space_group_name_H-M	'P1'
_cell_length_a	8.787000
_cell_length_b	8.787000
_cell_length_c	20.970000
_cell_angle_alpha	90.000000
_cell_angle_beta	90.000000
_cell_angle_gamma	120.000000
_symmetry_Int_Tables_number 1

loop_
_symmetry_equiv_pos_as_xyz
'x,y,z'

loop_
_atom_site_label
_atom_site_type_symbol
_atom_site_fract_x
_atom_site_fract_y
_atom_site_fract_z
Cd11	Cd1	0.000000	0.000000	0.000000
Cd21	Cd2	0.000000	0.000000	0.500000
Cd31	Cd3	0.333330	0.666670	0.116100
C11	C1	0.333330	0.666670	0.222300
Cd41	Cd4	0.666670	0.333330	0.616100
C21	C2	0.666670	0.333330	0.722300
Cd51	Cd5	0.666670	0.333330	0.883900
C31	C3	0.666670	0.333330	0.777700
Cd61	Cd6	0.333330	0.666670	0.383900
C41	C4	0.333330	0.666670	0.277700
N11	N1	0.128400	0.256800	0.060400
C51	C5	0.195900	0.391800	0.081000
N21	N2	0.743200	0.871600	0.060400
C61	C6	0.608200	0.804100	0.081000
N31	N3	0.128400	0.871600	0.060400
C71	C7	0.195900	0.804100	0.081000
N41	N4	0.871600	0.743200	0.560400
C81	C8	0.804100	0.608200	0.581000
N51	N5	0.256800	0.128400	0.560400
C91	C9	0.391800	0.195900	0.581000
N61	N6	0.871600	0.128400	0.560400
C101	C10	0.804100	0.195900	0.581000
N71	N7	0.256800	0.128400	0.939600
C111	C11	0.391800	0.195900	0.919000
N81	N8	0.871600	0.743200	0.939600
C121	C12	0.804100	0.608200	0.919000
N91	N9	0.871600	0.128400	0.939600
C131	C13	0.804100	0.195900	0.919000
N101	N10	0.743200	0.871600	0.439600
C141	C14	0.608200	0.804100	0.419000
N111	N11	0.128400	0.256800	0.439600
C151	C15	0.195900	0.391800	0.419000
N121	N12	0.128400	0.871600	0.439600
C161	C16	0.195900	0.804100	0.419000
