data_YIWPID_clean_PM
_symmetry_space_group_name_H-M	'P1'
_cell_length_a	10.817000
_cell_length_b	27.553000
_cell_length_c	9.048000
_cell_angle_alpha	90.000000
_cell_angle_beta	90.000000
_cell_angle_gamma	90.000000
_symmetry_Int_Tables_number 1

loop_
_symmetry_equiv_pos_as_xyz
'x,y,z'

loop_
_atom_site_label
_atom_site_type_symbol
_atom_site_fract_x
_atom_site_fract_y
_atom_site_fract_z
N11	N1	0.210000	0.978000	0.199000
N21	N2	0.475000	0.024000	0.197000
N31	N3	0.006000	0.216000	0.319000
N41	N4	0.725000	0.262000	0.342000
C11	C1	0.160000	0.964000	0.299000
C21	C2	0.526000	0.034000	0.298000
C31	C3	0.060000	0.211000	0.211000
C41	C4	0.309000	0.772000	0.228000
N51	N5	0.790000	0.478000	0.801000
N61	N6	0.525000	0.524000	0.803000
N71	N7	0.994000	0.716000	0.681000
N81	N8	0.275000	0.762000	0.658000
C51	C5	0.840000	0.464000	0.701000
C61	C6	0.474000	0.534000	0.702000
C71	C7	0.940000	0.711000	0.789000
C81	C8	0.691000	0.272000	0.772000
N91	N9	0.790000	0.478000	0.199000
N101	N10	0.525000	0.524000	0.197000
N111	N11	0.994000	0.716000	0.319000
N121	N12	0.275000	0.762000	0.342000
C91	C9	0.840000	0.464000	0.299000
C101	C10	0.474000	0.534000	0.298000
C111	C11	0.940000	0.711000	0.211000
C121	C12	0.691000	0.272000	0.228000
N131	N13	0.210000	0.978000	0.801000
N141	N14	0.475000	0.024000	0.803000
N151	N15	0.006000	0.216000	0.681000
N161	N16	0.725000	0.262000	0.658000
C131	C13	0.160000	0.964000	0.701000
C141	C14	0.526000	0.034000	0.702000
C151	C15	0.060000	0.211000	0.789000
C161	C16	0.309000	0.772000	0.772000
Cd11	Cd1	0.340500	0.000000	0.000000
Cd21	Cd2	0.162100	0.194100	0.000000
Cd31	Cd3	0.396700	0.801100	0.000000
N171	N17	0.258000	0.080000	0.000000
N181	N18	0.410000	0.920000	0.000000
C171	C17	0.232000	0.118000	0.000000
C181	C18	0.426000	0.881000	0.000000
C191	C19	0.581000	0.761000	0.000000
C201	C20	0.327000	0.242000	0.000000
Cd41	Cd4	0.659500	0.500000	0.000000
Cd51	Cd5	0.837900	0.694100	0.000000
Cd61	Cd6	0.603300	0.301100	0.000000
N191	N19	0.742000	0.580000	0.000000
N201	N20	0.590000	0.420000	0.000000
C211	C21	0.768000	0.618000	0.000000
C221	C22	0.574000	0.381000	0.000000
C231	C23	0.419000	0.261000	0.000000
C241	C24	0.673000	0.742000	0.000000
Cd71	Cd7	0.864700	0.237000	0.500000
Cd81	Cd8	0.631900	0.051600	0.500000
Cd91	Cd9	0.066700	0.939700	0.500000
N211	N21	0.782000	0.159000	0.500000
N221	N22	0.940000	0.317000	0.500000
C251	C25	0.733000	0.123000	0.500000
C261	C26	0.058000	0.858000	0.500000
C271	C27	0.791000	0.998000	0.500000
C281	C28	0.880000	0.978000	0.500000
Cd101	Cd10	0.135300	0.737000	0.500000
Cd111	Cd11	0.368100	0.551600	0.500000
Cd121	Cd12	0.933300	0.439700	0.500000
N231	N23	0.218000	0.659000	0.500000
N241	N24	0.060000	0.817000	0.500000
C291	C29	0.267000	0.623000	0.500000
C301	C30	0.942000	0.358000	0.500000
C311	C31	0.209000	0.498000	0.500000
C321	C32	0.120000	0.478000	0.500000
