data_YIXYUB_clean_PM
_symmetry_space_group_name_H-M	'P1'
_cell_length_a	5.882000
_cell_length_b	20.872000
_cell_length_c	20.872000
_cell_angle_alpha	90.000000
_cell_angle_beta	90.000000
_cell_angle_gamma	90.000000
_symmetry_Int_Tables_number 1

loop_
_symmetry_equiv_pos_as_xyz
'x,y,z'

loop_
_atom_site_label
_atom_site_type_symbol
_atom_site_fract_x
_atom_site_fract_y
_atom_site_fract_z
Cd11	Cd1	0.459970	0.768030	0.170120
Cd21	Cd2	0.540030	0.231970	0.829880
Cd31	Cd3	0.540030	0.268030	0.670120
Cd41	Cd4	0.959970	0.670120	0.231970
Cd51	Cd5	0.459970	0.731970	0.329880
Cd61	Cd6	0.040030	0.170120	0.731970
Cd71	Cd7	0.040030	0.329880	0.768030
Cd81	Cd8	0.959970	0.829880	0.268030
H11	H1	0.110100	0.149100	0.985400
H21	H2	0.649600	0.450300	0.727500
H31	H3	0.987600	0.992200	0.429000
H41	H4	0.382400	0.507900	0.577300
H51	H5	0.411000	0.845000	0.277000
H61	H6	0.761200	0.932700	0.144900
H71	H7	0.149600	0.227500	0.549700
H81	H8	0.274100	0.071900	0.414500
H91	H9	0.117600	0.922700	0.507900
H101	H10	0.882400	0.077300	0.492100
H111	H11	0.882400	0.422700	0.007900
H121	H12	0.149600	0.272500	0.950300
H131	H13	0.610100	0.485400	0.850900
H141	H14	0.089000	0.277000	0.655000
H151	H15	0.738800	0.355100	0.932700
H161	H16	0.110100	0.350900	0.514600
H171	H17	0.117600	0.577300	0.992100
H181	H18	0.261200	0.855100	0.432700
H191	H19	0.382400	0.992100	0.922700
H201	H20	0.987600	0.507800	0.071000
H211	H21	0.774100	0.585500	0.571900
H221	H22	0.589000	0.345000	0.777000
H231	H23	0.261200	0.644900	0.067300
H241	H24	0.617600	0.492100	0.422700
H251	H25	0.512400	0.071000	0.992200
H261	H26	0.487600	0.571000	0.492200
H271	H27	0.350400	0.549700	0.272500
H281	H28	0.225900	0.085500	0.071900
H291	H29	0.911000	0.777000	0.155000
H301	H30	0.889900	0.850900	0.014600
H311	H31	0.089000	0.223000	0.845000
H321	H32	0.389900	0.985400	0.350900
H331	H33	0.012400	0.007800	0.571000
H341	H34	0.738800	0.144900	0.567300
H351	H35	0.850400	0.727500	0.049700
H361	H36	0.889900	0.649100	0.485400
H371	H37	0.617600	0.007900	0.077300
H381	H38	0.610100	0.014600	0.649100
H391	H39	0.911000	0.723000	0.345000
H401	H40	0.850400	0.772500	0.450300
H411	H41	0.389900	0.514600	0.149100
H421	H42	0.512400	0.429000	0.507800
H431	H43	0.649600	0.049700	0.772500
H441	H44	0.725900	0.928100	0.585500
H451	H45	0.012400	0.492200	0.929000
H461	H46	0.238800	0.432700	0.644900
H471	H47	0.725900	0.571900	0.914500
H481	H48	0.487600	0.929000	0.007800
H491	H49	0.761200	0.567300	0.355100
H501	H50	0.225900	0.414500	0.428100
H511	H51	0.350400	0.950300	0.227500
H521	H52	0.274100	0.428100	0.085500
H531	H53	0.411000	0.655000	0.223000
H541	H54	0.238800	0.067300	0.855100
H551	H55	0.589000	0.155000	0.723000
H561	H56	0.774100	0.914500	0.928100
C11	C1	0.904900	0.947200	0.156700
C21	C2	0.659500	0.425200	0.491900
C31	C3	0.340500	0.925200	0.991900
C41	C4	0.659500	0.074800	0.008100
C51	C5	0.507300	0.503700	0.879400
C61	C6	0.226800	0.542300	0.299300
C71	C7	0.078600	0.082100	0.056100
C81	C8	0.221100	0.940600	0.536400
C91	C9	0.299100	0.019900	0.617000
C101	C10	0.568300	0.082300	0.458800
C111	C11	0.340500	0.574800	0.508100
C121	C12	0.278900	0.536400	0.559400
C131	C13	0.773200	0.457700	0.700700
C141	C14	0.931700	0.041200	0.082300
C151	C15	0.278900	0.963600	0.940600
C161	C16	0.159500	0.508100	0.925200
C171	C17	0.273200	0.299300	0.957700
C181	C18	0.992700	0.879400	0.996300
C191	C19	0.799100	0.117000	0.980100
C201	C20	0.720600	0.342300	0.574900
C211	C21	0.904900	0.552800	0.343300
C221	C22	0.200900	0.617000	0.480100
C231	C23	0.726800	0.799300	0.457700
C241	C24	0.078600	0.417900	0.443900
C251	C25	0.799100	0.383000	0.519900
C261	C26	0.700900	0.519900	0.117000
C271	C27	0.568300	0.417700	0.041200
C281	C28	0.421400	0.443900	0.082100
C291	C29	0.095100	0.052800	0.843300
C301	C30	0.726800	0.700700	0.042300
C311	C31	0.931700	0.458800	0.417700
C321	C32	0.431700	0.582300	0.958800
C331	C33	0.159500	0.991900	0.574800
C341	C34	0.578600	0.943900	0.582100
C351	C35	0.721100	0.463600	0.440600
C361	C36	0.720600	0.157700	0.925100
C371	C37	0.068300	0.958800	0.917700
C381	C38	0.068300	0.541200	0.582300
C391	C39	0.279400	0.842300	0.074900
C401	C40	0.007300	0.120600	0.003700
C411	C41	0.404900	0.843300	0.447200
C421	C42	0.507300	0.996300	0.620600
C431	C43	0.778900	0.059400	0.463600
C441	C44	0.595100	0.156700	0.552800
C451	C45	0.431700	0.917700	0.541200
C461	C46	0.404900	0.656700	0.052800
C471	C47	0.220600	0.425100	0.842300
C481	C48	0.095100	0.447200	0.656700
C491	C49	0.492700	0.496300	0.120600
C501	C50	0.273200	0.200700	0.542300
C511	C51	0.779400	0.925100	0.342300
C521	C52	0.299100	0.480100	0.883000
C531	C53	0.200900	0.883000	0.019900
C541	C54	0.279400	0.657700	0.425100
C551	C55	0.221100	0.559400	0.963600
C561	C56	0.421400	0.056100	0.417900
C571	C57	0.992700	0.620600	0.503700
C581	C58	0.007300	0.379400	0.496300
C591	C59	0.721100	0.036400	0.059400
C601	C60	0.779400	0.574900	0.157700
C611	C61	0.778900	0.440600	0.036400
C621	C62	0.773200	0.042300	0.799300
C631	C63	0.578600	0.556100	0.917900
C641	C64	0.921400	0.582100	0.556100
C651	C65	0.595100	0.343300	0.947200
C661	C66	0.921400	0.917900	0.943900
C671	C67	0.226800	0.957700	0.200700
C681	C68	0.220600	0.074900	0.657700
C691	C69	0.700900	0.980100	0.383000
C701	C70	0.840500	0.008100	0.425200
C711	C71	0.492700	0.003700	0.379400
C721	C72	0.840500	0.491900	0.074800
N11	N1	0.536000	0.700200	0.079900
N21	N2	0.964000	0.079900	0.799800
N31	N3	0.717600	0.659300	0.994300
N41	N4	0.282400	0.159300	0.494300
N51	N5	0.036000	0.579900	0.299800
N61	N6	0.036000	0.920100	0.200200
N71	N7	0.491100	0.132000	0.501600
N81	N8	0.717600	0.840700	0.505700
N91	N9	0.964000	0.420100	0.700200
N101	N10	0.217600	0.494300	0.340700
N111	N11	0.491100	0.368000	0.998400
N121	N12	0.782400	0.994300	0.840700
N131	N13	0.508900	0.632000	0.001600
N141	N14	0.008900	0.501600	0.368000
N151	N15	0.464000	0.200200	0.579900
N161	N16	0.217600	0.005700	0.159300
N171	N17	0.008900	0.998400	0.132000
N181	N18	0.282400	0.340700	0.005700
N191	N19	0.464000	0.299800	0.920100
N201	N20	0.782400	0.505700	0.659300
N211	N21	0.991100	0.498400	0.632000
N221	N22	0.508900	0.868000	0.498400
N231	N23	0.991100	0.001600	0.868000
N241	N24	0.536000	0.799800	0.420100
O11	O1	0.845600	0.298900	0.595600
O21	O2	0.834600	0.733400	0.312420
O31	O3	0.029800	0.400100	0.855200
O41	O4	0.334600	0.687580	0.233400
O51	O5	0.665400	0.187580	0.733400
O61	O6	0.470200	0.644800	0.400100
O71	O7	0.970200	0.599900	0.144800
O81	O8	0.654400	0.904400	0.298900
O91	O9	0.345600	0.095600	0.701100
O101	O10	0.165400	0.266600	0.687580
O111	O11	0.470200	0.855200	0.099900
O121	O12	0.970200	0.900100	0.355200
O131	O13	0.529800	0.144800	0.900100
O141	O14	0.654400	0.595600	0.201100
O151	O15	0.529800	0.355200	0.599900
O161	O16	0.029800	0.099900	0.644800
O171	O17	0.154400	0.701100	0.404400
O181	O18	0.165400	0.233400	0.812420
O191	O19	0.345600	0.404400	0.798900
O201	O20	0.665400	0.312420	0.766600
O211	O21	0.154400	0.798900	0.095600
O221	O22	0.845600	0.201100	0.904400
O231	O23	0.334600	0.812420	0.266600
O241	O24	0.834600	0.766600	0.187580
