data_YIXZEL_clean_PM
_symmetry_space_group_name_H-M	'P1'
_cell_length_a	14.512000
_cell_length_b	14.512000
_cell_length_c	8.914000
_cell_angle_alpha	90.000000
_cell_angle_beta	90.000000
_cell_angle_gamma	90.000000
_symmetry_Int_Tables_number 1

loop_
_symmetry_equiv_pos_as_xyz
'x,y,z'

loop_
_atom_site_label
_atom_site_type_symbol
_atom_site_fract_x
_atom_site_fract_y
_atom_site_fract_z
Zn11	Zn1	0.503810	0.636290	0.389930
Zn21	Zn2	0.502930	0.872460	0.707780
Zn31	Zn3	0.366570	0.014070	0.209390
Zn41	Zn4	0.130880	0.021260	0.887210
P11	P1	0.638830	0.496530	0.257920
P21	P2	0.348010	0.990710	0.856900
P31	P3	0.489470	0.856660	0.354900
P41	P4	0.140690	0.026830	0.242120
O11	O1	0.380100	0.912600	0.753900
O21	O2	0.536500	0.874000	0.503500
O31	O3	0.406900	0.076000	0.838500
O41	O4	0.349300	0.956900	0.017400
O51	O5	0.399300	0.910900	0.342100
O61	O6	0.250100	0.013000	0.809000
O71	O7	0.607400	0.596500	0.267800
O81	O8	0.740400	0.490200	0.234800
O91	O9	0.609100	0.445900	0.405400
O101	O10	0.590500	0.445000	0.130600
O111	O11	0.554200	0.881400	0.225600
O121	O12	0.460500	0.755400	0.338400
O131	O13	0.241200	0.049100	0.266600
O141	O14	0.082400	0.068300	0.369900
O151	O15	0.103300	0.071000	0.093400
O161	O16	0.123000	0.923100	0.228700
Zn51	Zn5	0.496190	0.363710	0.389930
Zn61	Zn6	0.497070	0.127540	0.707780
Zn71	Zn7	0.633430	0.985930	0.209390
Zn81	Zn8	0.869120	0.978740	0.887210
P51	P5	0.361170	0.503470	0.257920
P61	P6	0.651990	0.009290	0.856900
P71	P7	0.510530	0.143340	0.354900
P81	P8	0.859310	0.973170	0.242120
O171	O17	0.619900	0.087400	0.753900
O181	O18	0.463500	0.126000	0.503500
O191	O19	0.593100	0.924000	0.838500
O201	O20	0.650700	0.043100	0.017400
O211	O21	0.600700	0.089100	0.342100
O221	O22	0.749900	0.987000	0.809000
O231	O23	0.392600	0.403500	0.267800
O241	O24	0.259600	0.509800	0.234800
O251	O25	0.390900	0.554100	0.405400
O261	O26	0.409500	0.555000	0.130600
O271	O27	0.445800	0.118600	0.225600
O281	O28	0.539500	0.244600	0.338400
O291	O29	0.758800	0.950900	0.266600
O301	O30	0.917600	0.931700	0.369900
O311	O31	0.896700	0.929000	0.093400
O321	O32	0.877000	0.076900	0.228700
Zn91	Zn9	0.636290	0.496190	0.610070
Zn101	Zn10	0.872460	0.497070	0.292220
Zn111	Zn11	0.014070	0.633430	0.790610
Zn121	Zn12	0.021260	0.869120	0.112790
P91	P9	0.496530	0.361170	0.742080
P101	P10	0.990710	0.651990	0.143100
P111	P11	0.856660	0.510530	0.645100
P121	P12	0.026830	0.859310	0.757880
O331	O33	0.912600	0.619900	0.246100
O341	O34	0.874000	0.463500	0.496500
O351	O35	0.076000	0.593100	0.161500
O361	O36	0.956900	0.650700	0.982600
O371	O37	0.910900	0.600700	0.657900
O381	O38	0.013000	0.749900	0.191000
O391	O39	0.596500	0.392600	0.732200
O401	O40	0.490200	0.259600	0.765200
O411	O41	0.445900	0.390900	0.594600
O421	O42	0.445000	0.409500	0.869400
O431	O43	0.881400	0.445800	0.774400
O441	O44	0.755400	0.539500	0.661600
O451	O45	0.049100	0.758800	0.733400
O461	O46	0.068300	0.917600	0.630100
O471	O47	0.071000	0.896700	0.906600
O481	O48	0.923100	0.877000	0.771300
Zn131	Zn13	0.363710	0.503810	0.610070
Zn141	Zn14	0.127540	0.502930	0.292220
Zn151	Zn15	0.985930	0.366570	0.790610
Zn161	Zn16	0.978740	0.130880	0.112790
P131	P13	0.503470	0.638830	0.742080
P141	P14	0.009290	0.348010	0.143100
P151	P15	0.143340	0.489470	0.645100
P161	P16	0.973170	0.140690	0.757880
O491	O49	0.087400	0.380100	0.246100
O501	O50	0.126000	0.536500	0.496500
O511	O51	0.924000	0.406900	0.161500
O521	O52	0.043100	0.349300	0.982600
O531	O53	0.089100	0.399300	0.657900
O541	O54	0.987000	0.250100	0.191000
O551	O55	0.403500	0.607400	0.732200
O561	O56	0.509800	0.740400	0.765200
O571	O57	0.554100	0.609100	0.594600
O581	O58	0.555000	0.590500	0.869400
O591	O59	0.118600	0.554200	0.774400
O601	O60	0.244600	0.460500	0.661600
O611	O61	0.950900	0.241200	0.733400
O621	O62	0.931700	0.082400	0.630100
O631	O63	0.929000	0.103300	0.906600
O641	O64	0.076900	0.123000	0.771300
Zn171	Zn17	0.000000	0.000000	0.500000
Zn181	Zn18	0.500000	0.500000	0.000000
