data_YIXZEM_clean_PM
_symmetry_space_group_name_H-M	'P1'
_cell_length_a	21.230000
_cell_length_b	21.230000
_cell_length_c	6.029000
_cell_angle_alpha	90.000000
_cell_angle_beta	90.000000
_cell_angle_gamma	90.000000
_symmetry_Int_Tables_number 1

loop_
_symmetry_equiv_pos_as_xyz
'x,y,z'

loop_
_atom_site_label
_atom_site_type_symbol
_atom_site_fract_x
_atom_site_fract_y
_atom_site_fract_z
Cd11	Cd1	0.329810	0.769360	0.963410
O11	O1	0.400200	0.856700	0.974900
O21	O2	0.404000	0.800900	0.658900
O31	O3	0.312800	0.767400	0.342200
H11	H1	0.347000	0.797000	0.340000
N11	N1	0.635400	0.000900	0.495500
N21	N2	0.663200	0.992200	0.286500
N31	N3	0.702600	0.079900	0.460300
C11	C1	0.424900	0.844800	0.783000
C21	C2	0.482100	0.882100	0.707000
C31	C3	0.510400	0.922400	0.847000
H21	H2	0.496600	0.923700	0.992900
C41	C4	0.561500	0.964100	0.781000
H31	H3	0.577600	0.993800	0.879800
C51	C5	0.585600	0.958400	0.567000
C61	C6	0.553900	0.918500	0.427000
H41	H4	0.565400	0.917200	0.278700
C71	C7	0.505500	0.880200	0.499000
H51	H5	0.488100	0.851700	0.399200
C81	C8	0.658600	0.050500	0.595000
H61	H6	0.647200	0.064000	0.735800
C91	C9	0.702900	0.041000	0.274000
H71	H7	0.728500	0.048300	0.151000
Cd21	Cd2	0.170190	0.730640	0.963410
O41	O4	0.099800	0.643300	0.974900
O51	O5	0.096000	0.699100	0.658900
O61	O6	0.187200	0.732600	0.342200
H81	H8	0.153000	0.703000	0.340000
N41	N4	0.864600	0.499100	0.495500
N51	N5	0.836800	0.507800	0.286500
N61	N6	0.797400	0.420100	0.460300
C101	C10	0.075100	0.655200	0.783000
C111	C11	0.017900	0.617900	0.707000
C121	C12	0.989600	0.577600	0.847000
H91	H9	0.003400	0.576300	0.992900
C131	C13	0.938500	0.535900	0.781000
H101	H10	0.922400	0.506200	0.879800
C141	C14	0.914400	0.541600	0.567000
C151	C15	0.946100	0.581500	0.427000
H111	H11	0.934600	0.582800	0.278700
C161	C16	0.994500	0.619800	0.499000
H121	H12	0.011900	0.648300	0.399200
C171	C17	0.841400	0.449500	0.595000
H131	H13	0.852800	0.436000	0.735800
C181	C18	0.797100	0.459000	0.274000
H141	H14	0.771500	0.451700	0.151000
Cd31	Cd3	0.230640	0.829810	0.463410
O71	O7	0.143300	0.900200	0.474900
O81	O8	0.199100	0.904000	0.158900
O91	O9	0.232600	0.812800	0.842200
H151	H15	0.203000	0.847000	0.840000
N71	N7	0.999100	0.135400	0.995500
N81	N8	0.007800	0.163200	0.786500
N91	N9	0.920100	0.202600	0.960300
C191	C19	0.155200	0.924900	0.283000
C201	C20	0.117900	0.982100	0.207000
C211	C21	0.077600	0.010400	0.347000
H161	H16	0.076300	0.996600	0.492900
C221	C22	0.035900	0.061500	0.281000
H171	H17	0.006200	0.077600	0.379800
C231	C23	0.041600	0.085600	0.067000
C241	C24	0.081500	0.053900	0.927000
H181	H18	0.082800	0.065400	0.778700
C251	C25	0.119800	0.005500	0.999000
H191	H19	0.148300	0.988100	0.899200
C261	C26	0.949500	0.158600	0.095000
H201	H20	0.936000	0.147200	0.235800
C271	C27	0.959000	0.202900	0.774000
H211	H21	0.951700	0.228500	0.651000
Cd41	Cd4	0.269360	0.670190	0.463410
O101	O10	0.356700	0.599800	0.474900
O111	O11	0.300900	0.596000	0.158900
O121	O12	0.267400	0.687200	0.842200
H221	H22	0.297000	0.653000	0.840000
N101	N10	0.500900	0.364600	0.995500
N111	N11	0.492200	0.336800	0.786500
N121	N12	0.579900	0.297400	0.960300
C281	C28	0.344800	0.575100	0.283000
C291	C29	0.382100	0.517900	0.207000
C301	C30	0.422400	0.489600	0.347000
H231	H23	0.423700	0.503400	0.492900
C311	C31	0.464100	0.438500	0.281000
H241	H24	0.493800	0.422400	0.379800
C321	C32	0.458400	0.414400	0.067000
C331	C33	0.418500	0.446100	0.927000
H251	H25	0.417200	0.434600	0.778700
C341	C34	0.380200	0.494500	0.999000
H261	H26	0.351700	0.511900	0.899200
C351	C35	0.550500	0.341400	0.095000
H271	H27	0.564000	0.352800	0.235800
C361	C36	0.541000	0.297100	0.774000
H281	H28	0.548300	0.271500	0.651000
Cd51	Cd5	0.670190	0.230640	0.036590
O131	O13	0.599800	0.143300	0.025100
O141	O14	0.596000	0.199100	0.341100
O151	O15	0.687200	0.232600	0.657800
H291	H29	0.653000	0.203000	0.660000
N131	N13	0.364600	0.999100	0.504500
N141	N14	0.336800	0.007800	0.713500
N151	N15	0.297400	0.920100	0.539700
C371	C37	0.575100	0.155200	0.217000
C381	C38	0.517900	0.117900	0.293000
C391	C39	0.489600	0.077600	0.153000
H301	H30	0.503400	0.076300	0.007100
C401	C40	0.438500	0.035900	0.219000
H311	H31	0.422400	0.006200	0.120200
C411	C41	0.414400	0.041600	0.433000
C421	C42	0.446100	0.081500	0.573000
H321	H32	0.434600	0.082800	0.721300
C431	C43	0.494500	0.119800	0.501000
H331	H33	0.511900	0.148300	0.600800
C441	C44	0.341400	0.949500	0.405000
H341	H34	0.352800	0.936000	0.264200
C451	C45	0.297100	0.959000	0.726000
H351	H35	0.271500	0.951700	0.849000
Cd61	Cd6	0.829810	0.269360	0.036590
O161	O16	0.900200	0.356700	0.025100
O171	O17	0.904000	0.300900	0.341100
O181	O18	0.812800	0.267400	0.657800
H361	H36	0.847000	0.297000	0.660000
N161	N16	0.135400	0.500900	0.504500
N171	N17	0.163200	0.492200	0.713500
N181	N18	0.202600	0.579900	0.539700
C461	C46	0.924900	0.344800	0.217000
C471	C47	0.982100	0.382100	0.293000
C481	C48	0.010400	0.422400	0.153000
H371	H37	0.996600	0.423700	0.007100
C491	C49	0.061500	0.464100	0.219000
H381	H38	0.077600	0.493800	0.120200
C501	C50	0.085600	0.458400	0.433000
C511	C51	0.053900	0.418500	0.573000
H391	H39	0.065400	0.417200	0.721300
C521	C52	0.005500	0.380200	0.501000
H401	H40	0.988100	0.351700	0.600800
C531	C53	0.158600	0.550500	0.405000
H411	H41	0.147200	0.564000	0.264200
C541	C54	0.202900	0.541000	0.726000
H421	H42	0.228500	0.548300	0.849000
Cd71	Cd7	0.769360	0.170190	0.536590
O191	O19	0.856700	0.099800	0.525100
O201	O20	0.800900	0.096000	0.841100
O211	O21	0.767400	0.187200	0.157800
H431	H43	0.797000	0.153000	0.160000
N191	N19	0.000900	0.864600	0.004500
N201	N20	0.992200	0.836800	0.213500
N211	N21	0.079900	0.797400	0.039700
C551	C55	0.844800	0.075100	0.717000
C561	C56	0.882100	0.017900	0.793000
C571	C57	0.922400	0.989600	0.653000
H441	H44	0.923700	0.003400	0.507100
C581	C58	0.964100	0.938500	0.719000
H451	H45	0.993800	0.922400	0.620200
C591	C59	0.958400	0.914400	0.933000
C601	C60	0.918500	0.946100	0.073000
H461	H46	0.917200	0.934600	0.221300
C611	C61	0.880200	0.994500	0.001000
H471	H47	0.851700	0.011900	0.100800
C621	C62	0.050500	0.841400	0.905000
H481	H48	0.064000	0.852800	0.764200
C631	C63	0.041000	0.797100	0.226000
H491	H49	0.048300	0.771500	0.349000
Cd81	Cd8	0.730640	0.329810	0.536590
O221	O22	0.643300	0.400200	0.525100
O231	O23	0.699100	0.404000	0.841100
O241	O24	0.732600	0.312800	0.157800
H501	H50	0.703000	0.347000	0.160000
N221	N22	0.499100	0.635400	0.004500
N231	N23	0.507800	0.663200	0.213500
N241	N24	0.420100	0.702600	0.039700
C641	C64	0.655200	0.424900	0.717000
C651	C65	0.617900	0.482100	0.793000
C661	C66	0.577600	0.510400	0.653000
H511	H51	0.576300	0.496600	0.507100
C671	C67	0.535900	0.561500	0.719000
H521	H52	0.506200	0.577600	0.620200
C681	C68	0.541600	0.585600	0.933000
C691	C69	0.581500	0.553900	0.073000
H531	H53	0.582800	0.565400	0.221300
C701	C70	0.619800	0.505500	0.001000
H541	H54	0.648300	0.488100	0.100800
C711	C71	0.449500	0.658600	0.905000
H551	H55	0.436000	0.647200	0.764200
C721	C72	0.459000	0.702900	0.226000
H561	H56	0.451700	0.728500	0.349000
