data_YIZGEV_clean_PM
_symmetry_space_group_name_H-M	'P1'
_cell_length_a	18.711900
_cell_length_b	18.711900
_cell_length_c	9.399100
_cell_angle_alpha	90.000000
_cell_angle_beta	90.000000
_cell_angle_gamma	90.000000
_symmetry_Int_Tables_number 1

loop_
_symmetry_equiv_pos_as_xyz
'x,y,z'

loop_
_atom_site_label
_atom_site_type_symbol
_atom_site_fract_x
_atom_site_fract_y
_atom_site_fract_z
Si11	Si1	0.667330	0.434930	0.592630
Si21	Si2	0.832410	0.550720	0.340420
P11	P1	0.052590	0.561700	0.165850
Al11	Al1	0.664600	0.544880	0.338580
Al21	Al2	0.834490	0.433750	0.591700
Al31	Al3	0.930160	0.441860	0.159340
O11	O1	0.658680	0.500710	0.507390
O21	O2	0.748020	0.420370	0.620860
O31	O3	0.635610	0.369510	0.521280
O41	O4	0.634620	0.442210	0.742750
O51	O5	0.752420	0.562040	0.306350
O61	O6	0.006510	0.626450	0.206400
O71	O7	0.870030	0.618370	0.345920
O81	O8	0.840680	0.519820	0.488820
O91	O9	0.859180	0.498240	0.221320
O101	O10	0.117970	0.568030	0.252170
O111	O11	0.078640	0.579800	0.007460
O121	O12	0.014870	0.495390	0.174450
Si31	Si3	0.832670	0.065070	0.592630
Si41	Si4	0.667590	0.949280	0.340420
P21	P2	0.447410	0.938300	0.165850
Al41	Al4	0.835400	0.955120	0.338580
Al51	Al5	0.665510	0.066250	0.591700
Al61	Al6	0.569840	0.058140	0.159340
O131	O13	0.841320	0.999290	0.507390
O141	O14	0.751980	0.079630	0.620860
O151	O15	0.864390	0.130490	0.521280
O161	O16	0.865380	0.057790	0.742750
O171	O17	0.747580	0.937960	0.306350
O181	O18	0.493490	0.873550	0.206400
O191	O19	0.629970	0.881630	0.345920
O201	O20	0.659320	0.980180	0.488820
O211	O21	0.640820	0.001760	0.221320
O221	O22	0.382030	0.931970	0.252170
O231	O23	0.421360	0.920200	0.007460
O241	O24	0.485130	0.004610	0.174450
Si51	Si5	0.065070	0.667330	0.592630
Si61	Si6	0.949280	0.832410	0.340420
P31	P3	0.938300	0.052590	0.165850
Al71	Al7	0.955120	0.664600	0.338580
Al81	Al8	0.066250	0.834490	0.591700
Al91	Al9	0.058140	0.930160	0.159340
O251	O25	0.999290	0.658680	0.507390
O261	O26	0.079630	0.748020	0.620860
O271	O27	0.130490	0.635610	0.521280
O281	O28	0.057790	0.634620	0.742750
O291	O29	0.937960	0.752420	0.306350
O301	O30	0.873550	0.006510	0.206400
O311	O31	0.881630	0.870030	0.345920
O321	O32	0.980180	0.840680	0.488820
O331	O33	0.001760	0.859180	0.221320
O341	O34	0.931970	0.117970	0.252170
O351	O35	0.920200	0.078640	0.007460
O361	O36	0.004610	0.014870	0.174450
Si71	Si7	0.434930	0.832670	0.592630
Si81	Si8	0.550720	0.667590	0.340420
P41	P4	0.561700	0.447410	0.165850
Al101	Al10	0.544880	0.835400	0.338580
Al111	Al11	0.433750	0.665510	0.591700
Al121	Al12	0.441860	0.569840	0.159340
O371	O37	0.500710	0.841320	0.507390
O381	O38	0.420370	0.751980	0.620860
O391	O39	0.369510	0.864390	0.521280
O401	O40	0.442210	0.865380	0.742750
O411	O41	0.562040	0.747580	0.306350
O421	O42	0.626450	0.493490	0.206400
O431	O43	0.618370	0.629970	0.345920
O441	O44	0.519820	0.659320	0.488820
O451	O45	0.498240	0.640820	0.221320
O461	O46	0.568030	0.382030	0.252170
O471	O47	0.579800	0.421360	0.007460
O481	O48	0.495390	0.485130	0.174450
Si91	Si9	0.332670	0.565070	0.407370
Si101	Si10	0.167590	0.449280	0.659580
P51	P5	0.947410	0.438300	0.834150
Al131	Al13	0.335400	0.455120	0.661420
Al141	Al14	0.165510	0.566250	0.408300
Al151	Al15	0.069840	0.558140	0.840660
O491	O49	0.341320	0.499290	0.492610
O501	O50	0.251980	0.579630	0.379140
O511	O51	0.364390	0.630490	0.478720
O521	O52	0.365380	0.557790	0.257250
O531	O53	0.247580	0.437960	0.693650
O541	O54	0.993490	0.373550	0.793600
O551	O55	0.129970	0.381630	0.654080
O561	O56	0.159320	0.480180	0.511180
O571	O57	0.140820	0.501760	0.778680
O581	O58	0.882030	0.431970	0.747830
O591	O59	0.921360	0.420200	0.992540
O601	O60	0.985130	0.504610	0.825550
Si111	Si11	0.167330	0.934930	0.407370
Si121	Si12	0.332410	0.050720	0.659580
P61	P6	0.552590	0.061700	0.834150
Al161	Al16	0.164600	0.044880	0.661420
Al171	Al17	0.334490	0.933750	0.408300
Al181	Al18	0.430160	0.941860	0.840660
O611	O61	0.158680	0.000710	0.492610
O621	O62	0.248020	0.920370	0.379140
O631	O63	0.135610	0.869510	0.478720
O641	O64	0.134620	0.942210	0.257250
O651	O65	0.252420	0.062040	0.693650
O661	O66	0.506510	0.126450	0.793600
O671	O67	0.370030	0.118370	0.654080
O681	O68	0.340680	0.019820	0.511180
O691	O69	0.359180	0.998240	0.778680
O701	O70	0.617970	0.068030	0.747830
O711	O71	0.578640	0.079800	0.992540
O721	O72	0.514870	0.995390	0.825550
Si131	Si13	0.934930	0.332670	0.407370
Si141	Si14	0.050720	0.167590	0.659580
P71	P7	0.061700	0.947410	0.834150
Al191	Al19	0.044880	0.335400	0.661420
Al201	Al20	0.933750	0.165510	0.408300
Al211	Al21	0.941860	0.069840	0.840660
O731	O73	0.000710	0.341320	0.492610
O741	O74	0.920370	0.251980	0.379140
O751	O75	0.869510	0.364390	0.478720
O761	O76	0.942210	0.365380	0.257250
O771	O77	0.062040	0.247580	0.693650
O781	O78	0.126450	0.993490	0.793600
O791	O79	0.118370	0.129970	0.654080
O801	O80	0.019820	0.159320	0.511180
O811	O81	0.998240	0.140820	0.778680
O821	O82	0.068030	0.882030	0.747830
O831	O83	0.079800	0.921360	0.992540
O841	O84	0.995390	0.985130	0.825550
Si151	Si15	0.565070	0.167330	0.407370
Si161	Si16	0.449280	0.332410	0.659580
P81	P8	0.438300	0.552590	0.834150
Al221	Al22	0.455120	0.164600	0.661420
Al231	Al23	0.566250	0.334490	0.408300
Al241	Al24	0.558140	0.430160	0.840660
O851	O85	0.499290	0.158680	0.492610
O861	O86	0.579630	0.248020	0.379140
O871	O87	0.630490	0.135610	0.478720
O881	O88	0.557790	0.134620	0.257250
O891	O89	0.437960	0.252420	0.693650
O901	O90	0.373550	0.506510	0.793600
O911	O91	0.381630	0.370030	0.654080
O921	O92	0.480180	0.340680	0.511180
O931	O93	0.501760	0.359180	0.778680
O941	O94	0.431970	0.617970	0.747830
O951	O95	0.420200	0.578640	0.992540
O961	O96	0.504610	0.514870	0.825550
