data_YIZWIN_clean_PM
_symmetry_space_group_name_H-M	'P1'
_cell_length_a	13.950000
_cell_length_b	26.713000
_cell_length_c	7.628000
_cell_angle_alpha	90.000000
_cell_angle_beta	90.000000
_cell_angle_gamma	90.000000
_symmetry_Int_Tables_number 1

loop_
_symmetry_equiv_pos_as_xyz
'x,y,z'

loop_
_atom_site_label
_atom_site_type_symbol
_atom_site_fract_x
_atom_site_fract_y
_atom_site_fract_z
Cd11	Cd1	0.692050	0.500000	0.623470
Cd21	Cd2	0.739300	0.769170	0.624630
Ni11	Ni1	0.748640	0.633790	0.115150
Ni21	Ni2	0.475640	0.383780	0.994800
N11	N1	0.717700	0.556800	0.835900
N21	N2	0.724300	0.557300	0.399500
N31	N3	0.642900	0.437600	0.832000
N41	N4	0.345200	0.465900	0.875800
N51	N5	0.652800	0.442600	0.394000
N61	N6	0.528200	0.513000	0.571300
N71	N7	0.761700	0.711800	0.835100
N81	N8	0.765200	0.712000	0.395700
N91	N9	0.307000	0.332400	0.159000
N101	N10	0.607200	0.302600	0.116300
N111	N11	0.697300	0.827300	0.403000
N121	N12	0.572400	0.755900	0.586900
C11	C1	0.729600	0.585600	0.943000
C21	C2	0.733700	0.586000	0.288800
C31	C3	0.581000	0.416400	0.897900
C41	C4	0.394900	0.434900	0.920300
C51	C5	0.760600	0.681800	0.940000
C61	C6	0.761100	0.682600	0.287300
C71	C7	0.370000	0.351600	0.095000
C81	C8	0.555700	0.332700	0.069000
C91	C9	0.551500	0.446000	0.361000
C101	C10	0.496300	0.480600	0.433000
C111	C11	0.389900	0.480000	0.391000
C121	C12	0.589800	0.828400	0.397000
C131	C13	0.541500	0.785100	0.434000
C141	C14	0.432900	0.786700	0.409000
Cd31	Cd3	0.307950	0.000000	0.376530
Cd41	Cd4	0.260700	0.269170	0.375370
Ni31	Ni3	0.251360	0.133790	0.884850
Ni41	Ni4	0.524360	0.883780	0.005200
N131	N13	0.282300	0.056800	0.164100
N141	N14	0.275700	0.057300	0.600500
N151	N15	0.357100	0.937600	0.168000
N161	N16	0.654800	0.965900	0.124200
N171	N17	0.347200	0.942600	0.606000
N181	N18	0.471800	0.013000	0.428700
N191	N19	0.238300	0.211800	0.164900
N201	N20	0.234800	0.212000	0.604300
N211	N21	0.693000	0.832400	0.841000
N221	N22	0.392800	0.802600	0.883700
N231	N23	0.302700	0.327300	0.597000
N241	N24	0.427600	0.255900	0.413100
C151	C15	0.270400	0.085600	0.057000
C161	C16	0.266300	0.086000	0.711200
C171	C17	0.419000	0.916400	0.102100
C181	C18	0.605100	0.934900	0.079700
C191	C19	0.239400	0.181800	0.060000
C201	C20	0.238900	0.182600	0.712700
C211	C21	0.630000	0.851600	0.905000
C221	C22	0.444300	0.832700	0.931000
C231	C23	0.448500	0.946000	0.639000
C241	C24	0.503700	0.980600	0.567000
C251	C25	0.610100	0.980000	0.609000
C261	C26	0.410200	0.328400	0.603000
C271	C27	0.458500	0.285100	0.566000
C281	C28	0.567100	0.286700	0.591000
Cd51	Cd5	0.192050	0.500000	0.876530
Cd61	Cd6	0.239300	0.769170	0.875370
Ni51	Ni5	0.248640	0.633790	0.384850
Ni61	Ni6	0.975640	0.383780	0.505200
N251	N25	0.217700	0.556800	0.664100
N261	N26	0.224300	0.557300	0.100500
N271	N27	0.142900	0.437600	0.668000
N281	N28	0.845200	0.465900	0.624200
N291	N29	0.152800	0.442600	0.106000
N301	N30	0.028200	0.513000	0.928700
N311	N31	0.261700	0.711800	0.664900
N321	N32	0.265200	0.712000	0.104300
N331	N33	0.807000	0.332400	0.341000
N341	N34	0.107200	0.302600	0.383700
N351	N35	0.197300	0.827300	0.097000
N361	N36	0.072400	0.755900	0.913100
C291	C29	0.229600	0.585600	0.557000
C301	C30	0.233700	0.586000	0.211200
C311	C31	0.081000	0.416400	0.602100
C321	C32	0.894900	0.434900	0.579700
C331	C33	0.260600	0.681800	0.560000
C341	C34	0.261100	0.682600	0.212700
C351	C35	0.870000	0.351600	0.405000
C361	C36	0.055700	0.332700	0.431000
C371	C37	0.051500	0.446000	0.139000
C381	C38	0.996300	0.480600	0.067000
C391	C39	0.889900	0.480000	0.109000
C401	C40	0.089800	0.828400	0.103000
C411	C41	0.041500	0.785100	0.066000
C421	C42	0.932900	0.786700	0.091000
Cd71	Cd7	0.807950	0.000000	0.123470
Cd81	Cd8	0.760700	0.269170	0.124630
Ni71	Ni7	0.751360	0.133790	0.615150
Ni81	Ni8	0.024360	0.883780	0.494800
N371	N37	0.782300	0.056800	0.335900
N381	N38	0.775700	0.057300	0.899500
N391	N39	0.857100	0.937600	0.332000
N401	N40	0.154800	0.965900	0.375800
N411	N41	0.847200	0.942600	0.894000
N421	N42	0.971800	0.013000	0.071300
N431	N43	0.738300	0.211800	0.335100
N441	N44	0.734800	0.212000	0.895700
N451	N45	0.193000	0.832400	0.659000
N461	N46	0.892800	0.802600	0.616300
N471	N47	0.802700	0.327300	0.903000
N481	N48	0.927600	0.255900	0.086900
C431	C43	0.770400	0.085600	0.443000
C441	C44	0.766300	0.086000	0.788800
C451	C45	0.919000	0.916400	0.397900
C461	C46	0.105100	0.934900	0.420300
C471	C47	0.739400	0.181800	0.440000
C481	C48	0.738900	0.182600	0.787300
C491	C49	0.130000	0.851600	0.595000
C501	C50	0.944300	0.832700	0.569000
C511	C51	0.948500	0.946000	0.861000
C521	C52	0.003700	0.980600	0.933000
C531	C53	0.110100	0.980000	0.891000
C541	C54	0.910200	0.328400	0.897000
C551	C55	0.958500	0.285100	0.934000
C561	C56	0.067100	0.286700	0.909000
