data_YOBYAR_clean_PM
_symmetry_space_group_name_H-M	'P1'
_cell_length_a	24.500200
_cell_length_b	24.500200
_cell_length_c	24.500200
_cell_angle_alpha	93.872600
_cell_angle_beta	117.790000
_cell_angle_gamma	117.790000
_symmetry_Int_Tables_number 1

loop_
_symmetry_equiv_pos_as_xyz
'x,y,z'

loop_
_atom_site_label
_atom_site_type_symbol
_atom_site_fract_x
_atom_site_fract_y
_atom_site_fract_z
Zn11	Zn1	0.006260	0.231900	0.698500
Zn21	Zn2	0.466600	0.774360	0.768100
Zn31	Zn3	0.993740	0.692240	0.225640
Zn41	Zn4	0.508670	0.981520	0.950630
Zn51	Zn5	0.969110	0.527150	0.018480
Zn61	Zn6	0.491330	0.441960	0.472850
Zn71	Zn7	0.030890	0.049370	0.558040
Zn81	Zn8	0.533400	0.301500	0.307760
Ni11	Ni1	0.372780	0.885680	0.791700
Ni21	Ni2	0.627220	0.418920	0.512900
Ni31	Ni3	0.423120	0.118910	0.233970
Ni41	Ni4	0.884940	0.766030	0.189150
Ni51	Ni5	0.093980	0.208300	0.581080
Ni61	Ni6	0.115060	0.304210	0.881090
Ni71	Ni7	0.576880	0.810850	0.695790
Ni81	Ni8	0.906020	0.487100	0.114320
H11	H1	0.795900	0.197300	0.284800
H21	H2	0.663900	0.986900	0.755000
H31	H3	0.198200	0.886900	0.321900
H41	H4	0.283100	0.782000	0.929300
H51	H5	0.002500	0.553200	0.837100
H61	H6	0.204100	0.488900	0.401400
H71	H7	0.283900	0.449300	0.446800
H81	H8	0.603400	0.539300	0.787900
H91	H9	0.260000	0.965200	0.793800
H101	H10	0.812600	0.325600	0.868800
H111	H11	0.952700	0.201200	0.887100
H121	H12	0.171400	0.206200	0.466200
H131	H13	0.864200	0.214100	0.498900
H141	H14	0.367600	0.514600	0.341000
H151	H15	0.830500	0.281000	0.432700
H161	H16	0.231900	0.245000	0.908900
H171	H17	0.047300	0.934400	0.248500
H181	H18	0.201200	0.101200	0.746200
H191	H19	0.801800	0.123700	0.688700
H201	H20	0.435000	0.311300	0.113100
H211	H21	0.236200	0.216100	0.416100
H221	H22	0.828600	0.294800	0.034800
H231	H23	0.092300	0.433900	0.693600
H241	H24	0.751400	0.212100	0.815500
H251	H25	0.336700	0.654000	0.424500
H261	H26	0.167500	0.461100	0.885400
H271	H27	0.770500	0.682700	0.346000
H281	H28	0.543200	0.487000	0.674400
H291	H29	0.135800	0.634700	0.349900
H301	H30	0.663300	0.087800	0.317300
H311	H31	0.259700	0.658400	0.566100
H321	H32	0.912500	0.715200	0.511100
H331	H33	0.173600	0.659000	0.026600
H341	H34	0.260200	0.709700	0.997100
H351	H35	0.748600	0.702100	0.844900
H361	H36	0.632400	0.973400	0.147000
H371	H37	0.716100	0.162900	0.165400
H381	H38	0.229500	0.575500	0.912200
H391	H39	0.763800	0.179900	0.979900
H401	H40	0.798800	0.545000	0.900000
H411	H41	0.800000	0.583900	0.820100
H421	H42	0.142800	0.046500	0.297900
H431	H43	0.336100	0.091100	0.323000
H441	H44	0.629400	0.628700	0.923500
H451	H45	0.248600	0.064100	0.460700
H461	H46	0.314100	0.112900	0.065600
H471	H47	0.284800	0.650100	0.785900
H481	H48	0.715200	0.501100	0.365300
H491	H49	0.251400	0.096300	0.953500
H501	H50	0.685900	0.751500	0.798800
H511	H51	0.645000	0.100000	0.898800
H521	H52	0.716900	0.646200	0.498900
H531	H53	0.848300	0.567300	0.397800
H541	H54	0.147300	0.501100	0.218000
H551	H55	0.355000	0.253800	0.455000
H561	H56	0.169500	0.602200	0.450500
H571	H57	0.370600	0.294100	0.999300
H581	H58	0.087500	0.598600	0.802700
H591	H59	0.200000	0.020100	0.783900
H601	H60	0.424300	0.706400	0.538900
H611	H61	0.826400	0.853000	0.485400
H621	H62	0.456800	0.131200	0.943800
H631	H63	0.151700	0.549500	0.719000
H641	H64	0.739800	0.736900	0.449500
H651	H65	0.857200	0.155100	0.903700
H661	H66	0.575700	0.114600	0.282100
H671	H67	0.997500	0.834600	0.550700
H681	H68	0.396600	0.184500	0.935900
H691	H69	0.740000	0.533800	0.705200
H701	H70	0.294800	0.000700	0.371300
H711	H71	0.852700	0.070700	0.353800
H721	H72	0.565000	0.678100	0.876300
H731	H73	0.768100	0.677000	0.013100
H741	H74	0.907700	0.601300	0.341600
H751	H75	0.740300	0.306400	0.398700
H761	H76	0.705200	0.076500	0.705900
H771	H77	0.712600	0.002900	0.263100
H781	H78	0.187400	0.056200	0.513000
H791	H79	0.287400	0.550500	0.290300
H801	H80	0.832500	0.717900	0.293600
C11	C1	0.054600	0.584100	0.869100
C21	C2	0.283600	0.754910	0.900110
C31	C3	0.709500	0.077600	0.816100
C41	C4	0.339500	0.124490	0.349190
C51	C5	0.877100	0.565170	0.023070
C61	C6	0.351000	0.220700	0.427900
C71	C7	0.243800	0.621600	0.426600
C81	C8	0.080700	0.363000	0.771300
C91	C9	0.188000	0.178100	0.465900
C101	C10	0.823000	0.631950	0.026150
C111	C11	0.766100	0.228700	0.859600
C121	C12	0.775300	0.650810	0.990310
C131	C13	0.641000	0.654300	0.898300
C141	C14	0.369100	0.140400	0.906500
C151	C15	0.401100	0.239940	0.407840
C161	C16	0.113200	0.899700	0.278900
C171	C17	0.189600	0.591600	0.354000
C181	C18	0.154500	0.014500	0.302400
C191	C19	0.598900	0.006740	0.838840
C201	C20	0.813200	0.129500	0.732300
C211	C21	0.595400	0.506800	0.704000
C221	C22	0.131800	0.231550	0.790550
C231	C23	0.417200	0.222700	0.171900
C241	C24	0.237600	0.646000	0.835600
C251	C25	0.861400	0.392700	0.989700
C261	C26	0.254300	0.141800	0.845700
C271	C27	0.397200	0.267700	0.080900
C281	C28	0.591700	0.228700	0.309400
C291	C29	0.715000	0.130900	0.185500
C301	C30	0.602800	0.683700	0.870500
C311	C31	0.394200	0.191050	0.368050
C321	C32	0.667100	0.504770	0.412670
C331	C33	0.040600	0.609860	0.231060
C341	C34	0.832100	0.592160	0.993260
C351	C35	0.252100	0.042500	0.816400
C361	C36	0.756000	0.101700	0.742700
C371	C37	0.712100	0.697600	0.852100
C381	C38	0.404600	0.108600	0.911400
C391	C39	0.918100	0.851700	0.520800
C401	C40	0.973000	0.927100	0.542300
C411	C41	0.778900	0.247100	0.402000
C421	C42	0.441000	0.209450	0.341250
C431	C43	0.154900	0.531800	0.752900
C441	C44	0.818600	0.716700	0.476700
C451	C45	0.762400	0.598000	0.408400
C461	C46	0.907900	0.162330	0.495230
C471	C47	0.384800	0.457700	0.430700
C481	C48	0.105200	0.611600	0.848200
C491	C49	0.763400	0.151800	0.257000
C501	C50	0.845100	0.598000	0.376900
C511	C51	0.627500	0.148300	0.312000
C521	C52	0.287900	0.140000	0.985500
C531	C53	0.945400	0.814500	0.529500
C541	C54	0.359000	0.257300	0.013300
C551	C55	0.792800	0.572100	0.923100
C561	C56	0.760000	0.101900	0.283300
C571	C57	0.379200	0.213500	0.100300
C581	C58	0.330900	0.479200	0.397300
C591	C59	0.097300	0.548170	0.215270
C601	C60	0.240000	0.523300	0.341900
C611	C61	0.902700	0.117970	0.450870
C621	C62	0.809200	0.123400	0.357600
C631	C63	0.177000	0.203150	0.808950
C641	C64	0.226100	0.183600	0.435700
C651	C65	0.886800	0.165700	0.786500
C661	C66	0.145200	0.528690	0.245090
C671	C67	0.825000	0.320200	0.956400
C681	C68	0.845500	0.147900	0.860000
C691	C69	0.167900	0.161160	0.760060
C701	C70	0.902200	0.175300	0.849900
C711	C71	0.799400	0.667000	0.346200
C721	C72	0.716400	0.616510	0.471310
C731	C73	0.712200	0.534100	0.722100
C741	C74	0.287800	0.009900	0.821900
C751	C75	0.296100	0.154300	0.408600
C761	C76	0.348700	0.683600	0.562500
C771	C77	0.894800	0.743000	0.506400
C781	C78	0.186800	0.919100	0.316300
C791	C79	0.773300	0.110800	0.807500
C801	C80	0.332900	0.784730	0.882030
C811	C81	0.207200	0.130300	0.779300
C821	C82	0.092100	0.587330	0.254430
C831	C83	0.233900	0.093500	0.462600
C841	C84	0.679200	0.132400	0.333000
C851	C85	0.745700	0.591400	0.887500
C861	C86	0.630900	0.537400	0.771300
C871	C87	0.244000	0.986700	0.345700
C881	C88	0.791400	0.755600	0.469000
C891	C89	0.333500	0.508800	0.352300
C901	C90	0.696700	0.662500	0.889200
C911	C91	0.812000	0.277900	0.990100
C921	C92	0.765800	0.642400	0.451600
C931	C93	0.725200	0.262400	0.381000
C941	C94	0.773900	0.209600	0.957500
C951	C95	0.226700	0.034200	0.337500
C961	C96	0.651300	0.213800	0.334900
C971	C97	0.274800	0.655800	0.537200
C981	C98	0.195000	0.573400	0.817200
C991	C99	0.751000	0.185490	0.892290
C1001	C100	0.666500	0.018800	0.175300
C1011	C101	0.320800	0.653800	0.453200
C1021	C102	0.919300	0.690600	0.282300
C1031	C103	0.615200	0.045900	0.072900
C1041	C104	0.236600	0.493600	0.388400
C1051	C105	0.290500	0.106600	0.368100
C1061	C106	0.175000	0.131400	0.495200
C1071	C107	0.802800	0.296000	0.891400
C1081	C108	0.756200	0.182800	0.377800
C1091	C109	0.053500	0.523900	0.141400
C1101	C110	0.843500	0.824700	0.491200
C1111	C111	0.325400	0.150100	0.052300
C1121	C112	0.636200	0.504800	0.679800
C1131	C113	0.878900	0.665100	0.316400
C1141	C114	0.284900	0.676900	0.815800
C1151	C115	0.861100	0.184200	0.469100
C1161	C116	0.097800	0.947700	0.273100
C1171	C117	0.706800	0.565510	0.814510
C1181	C118	0.249000	0.141290	0.434490
C1191	C119	0.372500	0.684500	0.520800
C1201	C120	0.050800	0.828100	0.245300
C1211	C121	0.403000	0.010300	0.871700
C1221	C122	0.408300	0.717700	0.637000
C1231	C123	0.868200	0.658750	0.099750
C1241	C124	0.224700	0.215010	0.875510
C1251	C125	0.621200	0.430740	0.390140
C1261	C126	0.703900	0.112500	0.858200
C1271	C127	0.378800	0.768940	0.809540
C1281	C128	0.234200	0.685800	0.876600
C1291	C129	0.382500	0.858600	0.912100
C1301	C130	0.620800	0.721100	0.834300
C1311	C131	0.221100	0.623100	0.468200
C1321	C132	0.605800	0.973850	0.796850
C1331	C133	0.122900	0.145970	0.688070
C1341	C134	0.713400	0.035800	0.244400
C1351	C135	0.881400	0.619000	0.344200
C1361	C136	0.181400	0.658100	0.898100
C1371	C137	0.197200	0.088600	0.493200
C1381	C138	0.854800	0.099890	0.383490
C1391	C139	0.027000	0.569300	0.954100
C1401	C140	0.582800	0.754700	0.805500
C1411	C141	0.081900	0.602700	0.933600
C1421	C142	0.669100	0.066400	0.148300
C1431	C143	0.949200	0.194500	0.777300
C1441	C144	0.293200	0.107710	0.858710
C1451	C145	0.660500	0.009690	0.784990
C1461	C146	0.738500	0.631900	0.922400
C1471	C147	0.190800	0.548400	0.314200
C1481	C148	0.285000	0.470500	0.415900
C1491	C149	0.138600	0.128300	0.531300
C1501	C150	0.597000	0.468700	0.607300
C1511	C151	0.559000	0.900250	0.768450
C1521	C152	0.715100	0.530900	0.392000
C1531	C153	0.303300	0.192500	0.965800
C1541	C154	0.200600	0.546800	0.867600
C1551	C155	0.946500	0.087900	0.470400
C1561	C156	0.542100	0.976930	0.854030
C1571	C157	0.836300	0.688000	0.315500
C1581	C158	0.667100	0.549130	0.451830
C1591	C159	0.286600	0.531000	0.322400
C1601	C160	0.747900	0.564300	0.790400
C1611	C161	0.617500	0.529600	0.476100
C1621	C162	0.810400	0.164400	0.402000
C1631	C163	0.121100	0.437500	0.786200
C1641	C164	0.363800	0.043600	0.868600
C1651	C165	0.138900	0.608000	0.323100
C1661	C166	0.163700	0.479200	0.851700
C1671	C167	0.332900	0.745570	0.837670
C1681	C168	0.208600	0.677600	0.964200
C1691	C169	0.805000	0.622200	0.378400
C1701	C170	0.959400	0.190460	0.569260
C1711	C171	0.649000	0.076900	0.869700
C1721	C172	0.457900	0.311930	0.434830
C1731	C173	0.156500	0.647700	0.981200
C1741	C174	0.674600	0.726900	0.824700
C1751	C175	0.118600	0.462800	0.737600
C1761	C176	0.261500	0.183900	0.893400
O11	O1	0.935130	0.045740	0.428470
O21	O2	0.548280	0.872900	0.714940
O31	O3	0.528910	0.186400	0.258110
O41	O4	0.617270	0.571530	0.506660
O51	O5	0.382730	0.889390	0.954260
O61	O6	0.525820	0.331550	0.470810
O71	O7	0.388740	0.175340	0.188080
O81	O8	0.004250	0.537690	0.112340
O91	O9	0.567160	0.991500	0.913540
O101	O10	0.860740	0.529190	0.055010
O111	O11	0.077960	0.086460	0.653620
O121	O12	0.932390	0.194780	0.720990
O131	O13	0.012740	0.213400	0.824660
O141	O14	0.419900	0.748520	0.818700
O151	O15	0.533750	0.869680	0.797950
O161	O16	0.842040	0.675380	0.127100
O171	O17	0.464420	0.031580	0.925800
O181	O18	0.040500	0.951800	0.575700
O191	O19	0.922040	0.575660	0.008500
O201	O20	0.610100	0.284070	0.340570
O211	O21	0.929820	0.181300	0.601200
O221	O22	0.367930	0.961630	0.820160
O231	O23	0.928290	0.741890	0.270800
O241	O24	0.526210	0.737610	0.805220
O251	O25	0.474180	0.944990	0.805730
O261	O26	0.067610	0.788600	0.262390
O271	O27	0.969500	0.569570	0.197870
O281	O28	0.632070	0.452230	0.593700
O291	O29	0.894220	0.432840	0.968420
O301	O30	0.030500	0.228370	0.600070
O311	O31	0.566400	0.986000	0.042000
O321	O32	0.628300	0.399930	0.430430
O331	O33	0.623900	0.088700	0.048200
O341	O34	0.056500	0.326030	0.715930
O351	O35	0.389900	0.730470	0.673970
O361	O36	0.574650	0.466560	0.462310
O371	O37	0.071730	0.202050	0.735800
O381	O38	0.432840	0.346380	0.424340
O391	O39	0.157960	0.285060	0.833340
O401	O40	0.070180	0.671380	0.251480
O411	O41	0.943500	0.659430	0.269530
O421	O42	0.928270	0.664070	0.130320
O431	O43	0.995750	0.108090	0.533440
O441	O44	0.139260	0.194270	0.668450
O451	O45	0.071710	0.342510	0.813600
O461	O46	0.371700	0.802130	0.771630
O471	O47	0.580100	0.398800	0.328620
O481	O48	0.473790	0.279010	0.211400
O491	O49	0.858530	0.406300	0.038370
O501	O50	0.451720	0.166660	0.324620
O511	O51	0.376100	0.424300	0.464800
O521	O52	0.056000	0.580400	0.014000
O531	O53	0.466250	0.264200	0.335930
O541	O54	0.141470	0.179840	0.547770
O551	O55	0.064870	0.493340	0.110610
O561	O56	0.433600	0.475600	0.419600
O571	O57	0.471090	0.729200	0.657490
O581	O58	0.105780	0.074200	0.538620
O591	O59	0.944000	0.958000	0.524400
O601	O60	0.987260	0.811920	0.200660
O611	O61	0.959500	0.535200	0.911300
O621	O62	0.425350	0.887660	0.891910
O631	O63	0.611260	0.799340	0.786600
O641	O64	0.535580	0.461380	0.567160
