data_YOCLEJ_clean_PM
_symmetry_space_group_name_H-M	'P1'
_cell_length_a	18.607500
_cell_length_b	18.607500
_cell_length_c	18.607500
_cell_angle_alpha	60.000000
_cell_angle_beta	60.000000
_cell_angle_gamma	60.000000
_symmetry_Int_Tables_number 1

loop_
_symmetry_equiv_pos_as_xyz
'x,y,z'

loop_
_atom_site_label
_atom_site_type_symbol
_atom_site_fract_x
_atom_site_fract_y
_atom_site_fract_z
Cu11	Cu1	0.000000	0.000000	0.429310
Cu21	Cu2	0.000000	0.570690	0.429310
Cu31	Cu3	0.429310	0.000000	0.570690
Cu41	Cu4	0.000000	0.570690	0.000000
Cu51	Cu5	0.570690	0.429310	0.000000
Cu61	Cu6	0.570690	0.000000	0.000000
Cu71	Cu7	0.000000	0.000000	0.570690
Cu81	Cu8	0.570690	0.000000	0.429310
Cu91	Cu9	0.429310	0.000000	0.000000
Cu101	Cu10	0.000000	0.429310	0.000000
Cu111	Cu11	0.000000	0.429310	0.570690
Cu121	Cu12	0.429310	0.570690	0.000000
H11	H1	0.511600	0.729800	0.729800
H21	H2	0.729800	0.028800	0.729800
H31	H3	0.270200	0.270200	0.971200
H41	H4	0.511600	0.028800	0.729800
H51	H5	0.028800	0.729800	0.511600
H61	H6	0.729800	0.511600	0.729800
H71	H7	0.729800	0.511600	0.028800
H81	H8	0.488400	0.270200	0.971200
H91	H9	0.270200	0.971200	0.270200
H101	H10	0.270200	0.971200	0.488400
H111	H11	0.971200	0.270200	0.488400
H121	H12	0.729800	0.729800	0.511600
H131	H13	0.270200	0.488400	0.270200
H141	H14	0.028800	0.729800	0.729800
H151	H15	0.971200	0.270200	0.270200
H161	H16	0.488400	0.971200	0.270200
H171	H17	0.729800	0.028800	0.511600
H181	H18	0.028800	0.511600	0.729800
H191	H19	0.270200	0.488400	0.971200
H201	H20	0.488400	0.270200	0.270200
H211	H21	0.511600	0.729800	0.028800
H221	H22	0.729800	0.729800	0.028800
H231	H23	0.971200	0.488400	0.270200
H241	H24	0.270200	0.270200	0.488400
C11	C1	0.613110	0.031310	0.613110
C21	C2	0.386890	0.968690	0.257530
C31	C3	0.613110	0.613110	0.031310
C41	C4	0.837220	0.569120	0.569120
C51	C5	0.975460	0.430880	0.162780
C61	C6	0.162780	0.430880	0.430880
C71	C7	0.300890	0.300890	0.968410
C81	C8	0.257530	0.968690	0.386890
C91	C9	0.300890	0.968410	0.300890
C101	C10	0.837220	0.569120	0.024540
C111	C11	0.024540	0.569120	0.837220
C121	C12	0.968410	0.300890	0.300890
C131	C13	0.613110	0.613110	0.742470
C141	C14	0.430880	0.162780	0.430880
C151	C15	0.031590	0.699110	0.699110
C161	C16	0.570190	0.699110	0.699110
C171	C17	0.386890	0.257530	0.968690
C181	C18	0.975460	0.430880	0.430880
C191	C19	0.024540	0.837220	0.569120
C201	C20	0.430880	0.975460	0.162780
C211	C21	0.162780	0.430880	0.975460
C221	C22	0.031590	0.699110	0.570190
C231	C23	0.031310	0.613110	0.613110
C241	C24	0.430880	0.430880	0.162780
C251	C25	0.429810	0.300890	0.300890
C261	C26	0.569120	0.837220	0.569120
C271	C27	0.429810	0.300890	0.968410
C281	C28	0.742470	0.613110	0.613110
C291	C29	0.569120	0.569120	0.024540
C301	C30	0.699110	0.570190	0.699110
C311	C31	0.386890	0.968690	0.386890
C321	C32	0.300890	0.429810	0.968410
C331	C33	0.429810	0.968410	0.300890
C341	C34	0.386890	0.386890	0.968690
C351	C35	0.742470	0.031310	0.613110
C361	C36	0.300890	0.968410	0.429810
C371	C37	0.968410	0.300890	0.429810
C381	C38	0.031310	0.613110	0.742470
C391	C39	0.837220	0.024540	0.569120
C401	C40	0.257530	0.386890	0.968690
C411	C41	0.257530	0.386890	0.386890
C421	C42	0.430880	0.162780	0.975460
C431	C43	0.613110	0.031310	0.742470
C441	C44	0.968690	0.386890	0.257530
C451	C45	0.031590	0.570190	0.699110
C461	C46	0.024540	0.569120	0.569120
C471	C47	0.699110	0.570190	0.031590
C481	C48	0.613110	0.742470	0.031310
C491	C49	0.430880	0.430880	0.975460
C501	C50	0.031310	0.742470	0.613110
C511	C51	0.975460	0.162780	0.430880
C521	C52	0.386890	0.257530	0.386890
C531	C53	0.968690	0.257530	0.386890
C541	C54	0.430880	0.975460	0.430880
C551	C55	0.699110	0.699110	0.031590
C561	C56	0.699110	0.699110	0.570190
C571	C57	0.613110	0.742470	0.613110
C581	C58	0.699110	0.031590	0.699110
C591	C59	0.569120	0.569120	0.837220
C601	C60	0.569120	0.024540	0.569120
C611	C61	0.968690	0.386890	0.386890
C621	C62	0.570190	0.699110	0.031590
C631	C63	0.569120	0.024540	0.837220
C641	C64	0.300890	0.429810	0.300890
C651	C65	0.570190	0.031590	0.699110
C661	C66	0.699110	0.031590	0.570190
C671	C67	0.162780	0.975460	0.430880
C681	C68	0.569120	0.837220	0.024540
C691	C69	0.742470	0.613110	0.031310
C701	C70	0.300890	0.300890	0.429810
C711	C71	0.968410	0.429810	0.300890
C721	C72	0.386890	0.386890	0.257530
O11	O1	0.612820	0.873740	0.492240
O21	O2	0.978800	0.507760	0.126260
O31	O3	0.387180	0.126260	0.507760
O41	O4	0.612820	0.021200	0.492240
O51	O5	0.612820	0.021200	0.873740
O61	O6	0.507760	0.387180	0.978800
O71	O7	0.873740	0.021200	0.492240
O81	O8	0.021200	0.873740	0.492240
O91	O9	0.612820	0.492240	0.873740
O101	O10	0.021200	0.492240	0.612820
O111	O11	0.387180	0.126260	0.978800
O121	O12	0.492240	0.873740	0.021200
O131	O13	0.978800	0.387180	0.507760
O141	O14	0.492240	0.612820	0.873740
O151	O15	0.126260	0.387180	0.507760
O161	O16	0.978800	0.387180	0.126260
O171	O17	0.507760	0.978800	0.126260
O181	O18	0.873740	0.492240	0.021200
O191	O19	0.978800	0.126260	0.507760
O201	O20	0.387180	0.978800	0.126260
O211	O21	0.021200	0.492240	0.873740
O221	O22	0.507760	0.126260	0.978800
O231	O23	0.873740	0.612820	0.021200
O241	O24	0.387180	0.978800	0.507760
O251	O25	0.126260	0.507760	0.387180
O261	O26	0.021200	0.873740	0.612820
O271	O27	0.612820	0.873740	0.021200
O281	O28	0.387180	0.507760	0.978800
O291	O29	0.492240	0.021200	0.612820
O301	O30	0.021200	0.612820	0.873740
O311	O31	0.507760	0.978800	0.387180
O321	O32	0.126260	0.978800	0.507760
O331	O33	0.612820	0.492240	0.021200
O341	O34	0.126260	0.387180	0.978800
O351	O35	0.873740	0.612820	0.492240
O361	O36	0.873740	0.021200	0.612820
O371	O37	0.492240	0.612820	0.021200
O381	O38	0.978800	0.507760	0.387180
O391	O39	0.126260	0.507760	0.978800
O401	O40	0.507760	0.126260	0.387180
O411	O41	0.387180	0.507760	0.126260
O421	O42	0.492240	0.021200	0.873740
O431	O43	0.126260	0.978800	0.387180
O441	O44	0.873740	0.492240	0.612820
O451	O45	0.021200	0.612820	0.492240
O461	O46	0.507760	0.387180	0.126260
O471	O47	0.492240	0.873740	0.612820
O481	O48	0.978800	0.126260	0.387180
