data_YODWUL_clean_PM
_symmetry_space_group_name_H-M	'P1'
_cell_length_a	31.102000
_cell_length_b	31.102000
_cell_length_c	31.102000
_cell_angle_alpha	90.000000
_cell_angle_beta	90.000000
_cell_angle_gamma	90.000000
_symmetry_Int_Tables_number 1

loop_
_symmetry_equiv_pos_as_xyz
'x,y,z'

loop_
_atom_site_label
_atom_site_type_symbol
_atom_site_fract_x
_atom_site_fract_y
_atom_site_fract_z
O11	O1	0.457200	0.458100	0.140300
O21	O2	0.456200	0.456900	0.211300
O31	O3	0.358100	0.358500	0.285800
O41	O4	0.315100	0.317800	0.247300
O51	O5	0.321800	0.276700	0.103800
N11	N1	0.385400	0.310100	0.103400
H11	H1	0.410100	0.306100	0.090100
C11	C1	0.419100	0.403400	0.171800
C21	C2	0.395700	0.396900	0.209300
H21	H2	0.396900	0.417500	0.231900
C31	C3	0.370500	0.360300	0.213900
C41	C4	0.368700	0.330200	0.180900
H31	H3	0.351400	0.305200	0.184000
C51	C5	0.392100	0.336700	0.143400
C61	C6	0.417300	0.373300	0.138900
H41	H4	0.433400	0.377700	0.113300
C71	C7	0.444700	0.440500	0.175800
C81	C8	0.347000	0.344800	0.248800
C91	C9	0.354000	0.290900	0.082000
C101	C10	0.361900	0.273500	0.038800
C111	C11	0.373000	0.230400	0.038700
H51	H5	0.376700	0.215600	0.065100
O61	O6	0.542800	0.541900	0.140300
O71	O7	0.543800	0.543100	0.211300
O81	O8	0.641900	0.641500	0.285800
O91	O9	0.684900	0.682200	0.247300
O101	O10	0.678200	0.723300	0.103800
N21	N2	0.614600	0.689900	0.103400
H61	H6	0.589900	0.693900	0.090100
C121	C12	0.580900	0.596600	0.171800
C131	C13	0.604300	0.603100	0.209300
H71	H7	0.603100	0.582500	0.231900
C141	C14	0.629500	0.639700	0.213900
C151	C15	0.631300	0.669800	0.180900
H81	H8	0.648600	0.694800	0.184000
C161	C16	0.607900	0.663300	0.143400
C171	C17	0.582700	0.626700	0.138900
H91	H9	0.566600	0.622300	0.113300
C181	C18	0.555300	0.559500	0.175800
C191	C19	0.653000	0.655200	0.248800
C201	C20	0.646000	0.709100	0.082000
C211	C21	0.638100	0.726500	0.038800
C221	C22	0.627000	0.769600	0.038700
H101	H10	0.623300	0.784400	0.065100
O111	O11	0.542800	0.458100	0.859700
O121	O12	0.543800	0.456900	0.788700
O131	O13	0.641900	0.358500	0.714200
O141	O14	0.684900	0.317800	0.752700
O151	O15	0.678200	0.276700	0.896200
N31	N3	0.614600	0.310100	0.896600
H111	H11	0.589900	0.306100	0.909900
C231	C23	0.580900	0.403400	0.828200
C241	C24	0.604300	0.396900	0.790700
H121	H12	0.603100	0.417500	0.768100
C251	C25	0.629500	0.360300	0.786100
C261	C26	0.631300	0.330200	0.819100
H131	H13	0.648600	0.305200	0.816000
C271	C27	0.607900	0.336700	0.856600
C281	C28	0.582700	0.373300	0.861100
H141	H14	0.566600	0.377700	0.886700
C291	C29	0.555300	0.440500	0.824200
C301	C30	0.653000	0.344800	0.751200
C311	C31	0.646000	0.290900	0.918000
C321	C32	0.638100	0.273500	0.961200
C331	C33	0.627000	0.230400	0.961300
H151	H15	0.623300	0.215600	0.934900
O161	O16	0.457200	0.541900	0.859700
O171	O17	0.456200	0.543100	0.788700
O181	O18	0.358100	0.641500	0.714200
O191	O19	0.315100	0.682200	0.752700
O201	O20	0.321800	0.723300	0.896200
N41	N4	0.385400	0.689900	0.896600
H161	H16	0.410100	0.693900	0.909900
C341	C34	0.419100	0.596600	0.828200
C351	C35	0.395700	0.603100	0.790700
H171	H17	0.396900	0.582500	0.768100
C361	C36	0.370500	0.639700	0.786100
C371	C37	0.368700	0.669800	0.819100
H181	H18	0.351400	0.694800	0.816000
C381	C38	0.392100	0.663300	0.856600
C391	C39	0.417300	0.626700	0.861100
H191	H19	0.433400	0.622300	0.886700
C401	C40	0.444700	0.559500	0.824200
C411	C41	0.347000	0.655200	0.751200
C421	C42	0.354000	0.709100	0.918000
C431	C43	0.361900	0.726500	0.961200
C441	C44	0.373000	0.769600	0.961300
H201	H20	0.376700	0.784400	0.934900
O211	O21	0.140300	0.457200	0.458100
O221	O22	0.211300	0.456200	0.456900
O231	O23	0.285800	0.358100	0.358500
O241	O24	0.247300	0.315100	0.317800
O251	O25	0.103800	0.321800	0.276700
N51	N5	0.103400	0.385400	0.310100
H211	H21	0.090100	0.410100	0.306100
C451	C45	0.171800	0.419100	0.403400
C461	C46	0.209300	0.395700	0.396900
H221	H22	0.231900	0.396900	0.417500
C471	C47	0.213900	0.370500	0.360300
C481	C48	0.180900	0.368700	0.330200
H231	H23	0.184000	0.351400	0.305200
C491	C49	0.143400	0.392100	0.336700
C501	C50	0.138900	0.417300	0.373300
H241	H24	0.113300	0.433400	0.377700
C511	C51	0.175800	0.444700	0.440500
C521	C52	0.248800	0.347000	0.344800
C531	C53	0.082000	0.354000	0.290900
C541	C54	0.038800	0.361900	0.273500
C551	C55	0.038700	0.373000	0.230400
H251	H25	0.065100	0.376700	0.215600
O261	O26	0.140300	0.542800	0.541900
O271	O27	0.211300	0.543800	0.543100
O281	O28	0.285800	0.641900	0.641500
O291	O29	0.247300	0.684900	0.682200
O301	O30	0.103800	0.678200	0.723300
N61	N6	0.103400	0.614600	0.689900
H261	H26	0.090100	0.589900	0.693900
C561	C56	0.171800	0.580900	0.596600
C571	C57	0.209300	0.604300	0.603100
H271	H27	0.231900	0.603100	0.582500
C581	C58	0.213900	0.629500	0.639700
C591	C59	0.180900	0.631300	0.669800
H281	H28	0.184000	0.648600	0.694800
C601	C60	0.143400	0.607900	0.663300
C611	C61	0.138900	0.582700	0.626700
H291	H29	0.113300	0.566600	0.622300
C621	C62	0.175800	0.555300	0.559500
C631	C63	0.248800	0.653000	0.655200
C641	C64	0.082000	0.646000	0.709100
C651	C65	0.038800	0.638100	0.726500
C661	C66	0.038700	0.627000	0.769600
H301	H30	0.065100	0.623300	0.784400
O311	O31	0.859700	0.542800	0.458100
O321	O32	0.788700	0.543800	0.456900
O331	O33	0.714200	0.641900	0.358500
O341	O34	0.752700	0.684900	0.317800
O351	O35	0.896200	0.678200	0.276700
N71	N7	0.896600	0.614600	0.310100
H311	H31	0.909900	0.589900	0.306100
C671	C67	0.828200	0.580900	0.403400
C681	C68	0.790700	0.604300	0.396900
H321	H32	0.768100	0.603100	0.417500
C691	C69	0.786100	0.629500	0.360300
C701	C70	0.819100	0.631300	0.330200
H331	H33	0.816000	0.648600	0.305200
C711	C71	0.856600	0.607900	0.336700
C721	C72	0.861100	0.582700	0.373300
H341	H34	0.886700	0.566600	0.377700
C731	C73	0.824200	0.555300	0.440500
C741	C74	0.751200	0.653000	0.344800
C751	C75	0.918000	0.646000	0.290900
C761	C76	0.961200	0.638100	0.273500
C771	C77	0.961300	0.627000	0.230400
H351	H35	0.934900	0.623300	0.215600
O361	O36	0.859700	0.457200	0.541900
O371	O37	0.788700	0.456200	0.543100
O381	O38	0.714200	0.358100	0.641500
O391	O39	0.752700	0.315100	0.682200
O401	O40	0.896200	0.321800	0.723300
N81	N8	0.896600	0.385400	0.689900
H361	H36	0.909900	0.410100	0.693900
C781	C78	0.828200	0.419100	0.596600
C791	C79	0.790700	0.395700	0.603100
H371	H37	0.768100	0.396900	0.582500
C801	C80	0.786100	0.370500	0.639700
C811	C81	0.819100	0.368700	0.669800
H381	H38	0.816000	0.351400	0.694800
C821	C82	0.856600	0.392100	0.663300
C831	C83	0.861100	0.417300	0.626700
H391	H39	0.886700	0.433400	0.622300
C841	C84	0.824200	0.444700	0.559500
C851	C85	0.751200	0.347000	0.655200
C861	C86	0.918000	0.354000	0.709100
C871	C87	0.961200	0.361900	0.726500
C881	C88	0.961300	0.373000	0.769600
H401	H40	0.934900	0.376700	0.784400
O411	O41	0.458100	0.140300	0.457200
O421	O42	0.456900	0.211300	0.456200
O431	O43	0.358500	0.285800	0.358100
O441	O44	0.317800	0.247300	0.315100
O451	O45	0.276700	0.103800	0.321800
N91	N9	0.310100	0.103400	0.385400
H411	H41	0.306100	0.090100	0.410100
C891	C89	0.403400	0.171800	0.419100
C901	C90	0.396900	0.209300	0.395700
H421	H42	0.417500	0.231900	0.396900
C911	C91	0.360300	0.213900	0.370500
C921	C92	0.330200	0.180900	0.368700
H431	H43	0.305200	0.184000	0.351400
C931	C93	0.336700	0.143400	0.392100
C941	C94	0.373300	0.138900	0.417300
H441	H44	0.377700	0.113300	0.433400
C951	C95	0.440500	0.175800	0.444700
C961	C96	0.344800	0.248800	0.347000
C971	C97	0.290900	0.082000	0.354000
C981	C98	0.273500	0.038800	0.361900
C991	C99	0.230400	0.038700	0.373000
H451	H45	0.215600	0.065100	0.376700
O461	O46	0.541900	0.140300	0.542800
O471	O47	0.543100	0.211300	0.543800
O481	O48	0.641500	0.285800	0.641900
O491	O49	0.682200	0.247300	0.684900
O501	O50	0.723300	0.103800	0.678200
N101	N10	0.689900	0.103400	0.614600
H461	H46	0.693900	0.090100	0.589900
C1001	C100	0.596600	0.171800	0.580900
C1011	C101	0.603100	0.209300	0.604300
H471	H47	0.582500	0.231900	0.603100
C1021	C102	0.639700	0.213900	0.629500
C1031	C103	0.669800	0.180900	0.631300
H481	H48	0.694800	0.184000	0.648600
C1041	C104	0.663300	0.143400	0.607900
C1051	C105	0.626700	0.138900	0.582700
H491	H49	0.622300	0.113300	0.566600
C1061	C106	0.559500	0.175800	0.555300
C1071	C107	0.655200	0.248800	0.653000
C1081	C108	0.709100	0.082000	0.646000
C1091	C109	0.726500	0.038800	0.638100
C1101	C110	0.769600	0.038700	0.627000
H501	H50	0.784400	0.065100	0.623300
O511	O51	0.458100	0.859700	0.542800
O521	O52	0.456900	0.788700	0.543800
O531	O53	0.358500	0.714200	0.641900
O541	O54	0.317800	0.752700	0.684900
O551	O55	0.276700	0.896200	0.678200
N111	N11	0.310100	0.896600	0.614600
H511	H51	0.306100	0.909900	0.589900
C1111	C111	0.403400	0.828200	0.580900
C1121	C112	0.396900	0.790700	0.604300
H521	H52	0.417500	0.768100	0.603100
C1131	C113	0.360300	0.786100	0.629500
C1141	C114	0.330200	0.819100	0.631300
H531	H53	0.305200	0.816000	0.648600
C1151	C115	0.336700	0.856600	0.607900
C1161	C116	0.373300	0.861100	0.582700
H541	H54	0.377700	0.886700	0.566600
C1171	C117	0.440500	0.824200	0.555300
C1181	C118	0.344800	0.751200	0.653000
C1191	C119	0.290900	0.918000	0.646000
C1201	C120	0.273500	0.961200	0.638100
C1211	C121	0.230400	0.961300	0.627000
H551	H55	0.215600	0.934900	0.623300
O561	O56	0.541900	0.859700	0.457200
O571	O57	0.543100	0.788700	0.456200
O581	O58	0.641500	0.714200	0.358100
O591	O59	0.682200	0.752700	0.315100
O601	O60	0.723300	0.896200	0.321800
N121	N12	0.689900	0.896600	0.385400
H561	H56	0.693900	0.909900	0.410100
C1221	C122	0.596600	0.828200	0.419100
C1231	C123	0.603100	0.790700	0.395700
H571	H57	0.582500	0.768100	0.396900
C1241	C124	0.639700	0.786100	0.370500
C1251	C125	0.669800	0.819100	0.368700
H581	H58	0.694800	0.816000	0.351400
C1261	C126	0.663300	0.856600	0.392100
C1271	C127	0.626700	0.861100	0.417300
H591	H59	0.622300	0.886700	0.433400
C1281	C128	0.559500	0.824200	0.444700
C1291	C129	0.655200	0.751200	0.347000
C1301	C130	0.709100	0.918000	0.354000
C1311	C131	0.726500	0.961200	0.361900
C1321	C132	0.769600	0.961300	0.373000
H601	H60	0.784400	0.934900	0.376700
O611	O61	0.542800	0.541900	0.859700
O621	O62	0.543800	0.543100	0.788700
O631	O63	0.641900	0.641500	0.714200
O641	O64	0.684900	0.682200	0.752700
O651	O65	0.678200	0.723300	0.896200
N131	N13	0.614600	0.689900	0.896600
H611	H61	0.589900	0.693900	0.909900
C1331	C133	0.580900	0.596600	0.828200
C1341	C134	0.604300	0.603100	0.790700
H621	H62	0.603100	0.582500	0.768100
C1351	C135	0.629500	0.639700	0.786100
C1361	C136	0.631300	0.669800	0.819100
H631	H63	0.648600	0.694800	0.816000
C1371	C137	0.607900	0.663300	0.856600
C1381	C138	0.582700	0.626700	0.861100
H641	H64	0.566600	0.622300	0.886700
C1391	C139	0.555300	0.559500	0.824200
C1401	C140	0.653000	0.655200	0.751200
C1411	C141	0.646000	0.709100	0.918000
C1421	C142	0.638100	0.726500	0.961200
C1431	C143	0.627000	0.769600	0.961300
H651	H65	0.623300	0.784400	0.934900
O661	O66	0.457200	0.458100	0.859700
O671	O67	0.456200	0.456900	0.788700
O681	O68	0.358100	0.358500	0.714200
O691	O69	0.315100	0.317800	0.752700
O701	O70	0.321800	0.276700	0.896200
N141	N14	0.385400	0.310100	0.896600
H661	H66	0.410100	0.306100	0.909900
C1441	C144	0.419100	0.403400	0.828200
C1451	C145	0.395700	0.396900	0.790700
H671	H67	0.396900	0.417500	0.768100
C1461	C146	0.370500	0.360300	0.786100
C1471	C147	0.368700	0.330200	0.819100
H681	H68	0.351400	0.305200	0.816000
C1481	C148	0.392100	0.336700	0.856600
C1491	C149	0.417300	0.373300	0.861100
H691	H69	0.433400	0.377700	0.886700
C1501	C150	0.444700	0.440500	0.824200
C1511	C151	0.347000	0.344800	0.751200
C1521	C152	0.354000	0.290900	0.918000
C1531	C153	0.361900	0.273500	0.961200
C1541	C154	0.373000	0.230400	0.961300
H701	H70	0.376700	0.215600	0.934900
O711	O71	0.457200	0.541900	0.140300
O721	O72	0.456200	0.543100	0.211300
O731	O73	0.358100	0.641500	0.285800
O741	O74	0.315100	0.682200	0.247300
O751	O75	0.321800	0.723300	0.103800
N151	N15	0.385400	0.689900	0.103400
H711	H71	0.410100	0.693900	0.090100
C1551	C155	0.419100	0.596600	0.171800
C1561	C156	0.395700	0.603100	0.209300
H721	H72	0.396900	0.582500	0.231900
C1571	C157	0.370500	0.639700	0.213900
C1581	C158	0.368700	0.669800	0.180900
H731	H73	0.351400	0.694800	0.184000
C1591	C159	0.392100	0.663300	0.143400
C1601	C160	0.417300	0.626700	0.138900
H741	H74	0.433400	0.622300	0.113300
C1611	C161	0.444700	0.559500	0.175800
C1621	C162	0.347000	0.655200	0.248800
C1631	C163	0.354000	0.709100	0.082000
C1641	C164	0.361900	0.726500	0.038800
C1651	C165	0.373000	0.769600	0.038700
H751	H75	0.376700	0.784400	0.065100
O761	O76	0.542800	0.458100	0.140300
O771	O77	0.543800	0.456900	0.211300
O781	O78	0.641900	0.358500	0.285800
O791	O79	0.684900	0.317800	0.247300
O801	O80	0.678200	0.276700	0.103800
N161	N16	0.614600	0.310100	0.103400
H761	H76	0.589900	0.306100	0.090100
C1661	C166	0.580900	0.403400	0.171800
C1671	C167	0.604300	0.396900	0.209300
H771	H77	0.603100	0.417500	0.231900
C1681	C168	0.629500	0.360300	0.213900
C1691	C169	0.631300	0.330200	0.180900
H781	H78	0.648600	0.305200	0.184000
C1701	C170	0.607900	0.336700	0.143400
C1711	C171	0.582700	0.373300	0.138900
H791	H79	0.566600	0.377700	0.113300
C1721	C172	0.555300	0.440500	0.175800
C1731	C173	0.653000	0.344800	0.248800
C1741	C174	0.646000	0.290900	0.082000
C1751	C175	0.638100	0.273500	0.038800
C1761	C176	0.627000	0.230400	0.038700
H801	H80	0.623300	0.215600	0.065100
O811	O81	0.859700	0.542800	0.541900
O821	O82	0.788700	0.543800	0.543100
O831	O83	0.714200	0.641900	0.641500
O841	O84	0.752700	0.684900	0.682200
O851	O85	0.896200	0.678200	0.723300
N171	N17	0.896600	0.614600	0.689900
H811	H81	0.909900	0.589900	0.693900
C1771	C177	0.828200	0.580900	0.596600
C1781	C178	0.790700	0.604300	0.603100
H821	H82	0.768100	0.603100	0.582500
C1791	C179	0.786100	0.629500	0.639700
C1801	C180	0.819100	0.631300	0.669800
H831	H83	0.816000	0.648600	0.694800
C1811	C181	0.856600	0.607900	0.663300
C1821	C182	0.861100	0.582700	0.626700
H841	H84	0.886700	0.566600	0.622300
C1831	C183	0.824200	0.555300	0.559500
C1841	C184	0.751200	0.653000	0.655200
C1851	C185	0.918000	0.646000	0.709100
C1861	C186	0.961200	0.638100	0.726500
C1871	C187	0.961300	0.627000	0.769600
H851	H85	0.934900	0.623300	0.784400
O861	O86	0.859700	0.457200	0.458100
O871	O87	0.788700	0.456200	0.456900
O881	O88	0.714200	0.358100	0.358500
O891	O89	0.752700	0.315100	0.317800
O901	O90	0.896200	0.321800	0.276700
N181	N18	0.896600	0.385400	0.310100
H861	H86	0.909900	0.410100	0.306100
C1881	C188	0.828200	0.419100	0.403400
C1891	C189	0.790700	0.395700	0.396900
H871	H87	0.768100	0.396900	0.417500
C1901	C190	0.786100	0.370500	0.360300
C1911	C191	0.819100	0.368700	0.330200
H881	H88	0.816000	0.351400	0.305200
C1921	C192	0.856600	0.392100	0.336700
C1931	C193	0.861100	0.417300	0.373300
H891	H89	0.886700	0.433400	0.377700
C1941	C194	0.824200	0.444700	0.440500
C1951	C195	0.751200	0.347000	0.344800
C1961	C196	0.918000	0.354000	0.290900
C1971	C197	0.961200	0.361900	0.273500
C1981	C198	0.961300	0.373000	0.230400
H901	H90	0.934900	0.376700	0.215600
O911	O91	0.140300	0.457200	0.541900
O921	O92	0.211300	0.456200	0.543100
O931	O93	0.285800	0.358100	0.641500
O941	O94	0.247300	0.315100	0.682200
O951	O95	0.103800	0.321800	0.723300
N191	N19	0.103400	0.385400	0.689900
H911	H91	0.090100	0.410100	0.693900
C1991	C199	0.171800	0.419100	0.596600
C2001	C200	0.209300	0.395700	0.603100
H921	H92	0.231900	0.396900	0.582500
C2011	C201	0.213900	0.370500	0.639700
C2021	C202	0.180900	0.368700	0.669800
H931	H93	0.184000	0.351400	0.694800
C2031	C203	0.143400	0.392100	0.663300
C2041	C204	0.138900	0.417300	0.626700
H941	H94	0.113300	0.433400	0.622300
C2051	C205	0.175800	0.444700	0.559500
C2061	C206	0.248800	0.347000	0.655200
C2071	C207	0.082000	0.354000	0.709100
C2081	C208	0.038800	0.361900	0.726500
C2091	C209	0.038700	0.373000	0.769600
H951	H95	0.065100	0.376700	0.784400
O961	O96	0.140300	0.542800	0.458100
O971	O97	0.211300	0.543800	0.456900
O981	O98	0.285800	0.641900	0.358500
O991	O99	0.247300	0.684900	0.317800
O1001	O100	0.103800	0.678200	0.276700
N201	N20	0.103400	0.614600	0.310100
H961	H96	0.090100	0.589900	0.306100
C2101	C210	0.171800	0.580900	0.403400
C2111	C211	0.209300	0.604300	0.396900
H971	H97	0.231900	0.603100	0.417500
C2121	C212	0.213900	0.629500	0.360300
C2131	C213	0.180900	0.631300	0.330200
H981	H98	0.184000	0.648600	0.305200
C2141	C214	0.143400	0.607900	0.336700
C2151	C215	0.138900	0.582700	0.373300
H991	H99	0.113300	0.566600	0.377700
C2161	C216	0.175800	0.555300	0.440500
C2171	C217	0.248800	0.653000	0.344800
C2181	C218	0.082000	0.646000	0.290900
C2191	C219	0.038800	0.638100	0.273500
C2201	C220	0.038700	0.627000	0.230400
H1001	H100	0.065100	0.623300	0.215600
O1011	O101	0.541900	0.859700	0.542800
O1021	O102	0.543100	0.788700	0.543800
O1031	O103	0.641500	0.714200	0.641900
O1041	O104	0.682200	0.752700	0.684900
O1051	O105	0.723300	0.896200	0.678200
N211	N21	0.689900	0.896600	0.614600
H1011	H101	0.693900	0.909900	0.589900
C2211	C221	0.596600	0.828200	0.580900
C2221	C222	0.603100	0.790700	0.604300
H1021	H102	0.582500	0.768100	0.603100
C2231	C223	0.639700	0.786100	0.629500
C2241	C224	0.669800	0.819100	0.631300
H1031	H103	0.694800	0.816000	0.648600
C2251	C225	0.663300	0.856600	0.607900
C2261	C226	0.626700	0.861100	0.582700
H1041	H104	0.622300	0.886700	0.566600
C2271	C227	0.559500	0.824200	0.555300
C2281	C228	0.655200	0.751200	0.653000
C2291	C229	0.709100	0.918000	0.646000
C2301	C230	0.726500	0.961200	0.638100
C2311	C231	0.769600	0.961300	0.627000
H1051	H105	0.784400	0.934900	0.623300
O1061	O106	0.458100	0.859700	0.457200
O1071	O107	0.456900	0.788700	0.456200
O1081	O108	0.358500	0.714200	0.358100
O1091	O109	0.317800	0.752700	0.315100
O1101	O110	0.276700	0.896200	0.321800
N221	N22	0.310100	0.896600	0.385400
H1061	H106	0.306100	0.909900	0.410100
C2321	C232	0.403400	0.828200	0.419100
C2331	C233	0.396900	0.790700	0.395700
H1071	H107	0.417500	0.768100	0.396900
C2341	C234	0.360300	0.786100	0.370500
C2351	C235	0.330200	0.819100	0.368700
H1081	H108	0.305200	0.816000	0.351400
C2361	C236	0.336700	0.856600	0.392100
C2371	C237	0.373300	0.861100	0.417300
H1091	H109	0.377700	0.886700	0.433400
C2381	C238	0.440500	0.824200	0.444700
C2391	C239	0.344800	0.751200	0.347000
C2401	C240	0.290900	0.918000	0.354000
C2411	C241	0.273500	0.961200	0.361900
C2421	C242	0.230400	0.961300	0.373000
H1101	H110	0.215600	0.934900	0.376700
O1111	O111	0.541900	0.140300	0.457200
O1121	O112	0.543100	0.211300	0.456200
O1131	O113	0.641500	0.285800	0.358100
O1141	O114	0.682200	0.247300	0.315100
O1151	O115	0.723300	0.103800	0.321800
N231	N23	0.689900	0.103400	0.385400
H1111	H111	0.693900	0.090100	0.410100
C2431	C243	0.596600	0.171800	0.419100
C2441	C244	0.603100	0.209300	0.395700
H1121	H112	0.582500	0.231900	0.396900
C2451	C245	0.639700	0.213900	0.370500
C2461	C246	0.669800	0.180900	0.368700
H1131	H113	0.694800	0.184000	0.351400
C2471	C247	0.663300	0.143400	0.392100
C2481	C248	0.626700	0.138900	0.417300
H1141	H114	0.622300	0.113300	0.433400
C2491	C249	0.559500	0.175800	0.444700
C2501	C250	0.655200	0.248800	0.347000
C2511	C251	0.709100	0.082000	0.354000
C2521	C252	0.726500	0.038800	0.361900
C2531	C253	0.769600	0.038700	0.373000
H1151	H115	0.784400	0.065100	0.376700
O1161	O116	0.458100	0.140300	0.542800
O1171	O117	0.456900	0.211300	0.543800
O1181	O118	0.358500	0.285800	0.641900
O1191	O119	0.317800	0.247300	0.684900
O1201	O120	0.276700	0.103800	0.678200
N241	N24	0.310100	0.103400	0.614600
H1161	H116	0.306100	0.090100	0.589900
C2541	C254	0.403400	0.171800	0.580900
C2551	C255	0.396900	0.209300	0.604300
H1171	H117	0.417500	0.231900	0.603100
C2561	C256	0.360300	0.213900	0.629500
C2571	C257	0.330200	0.180900	0.631300
H1181	H118	0.305200	0.184000	0.648600
C2581	C258	0.336700	0.143400	0.607900
C2591	C259	0.373300	0.138900	0.582700
H1191	H119	0.377700	0.113300	0.566600
C2601	C260	0.440500	0.175800	0.555300
C2611	C261	0.344800	0.248800	0.653000
C2621	C262	0.290900	0.082000	0.646000
C2631	C263	0.273500	0.038800	0.638100
C2641	C264	0.230400	0.038700	0.627000
H1201	H120	0.215600	0.065100	0.623300
Zn11	Zn1	0.500000	0.500000	0.127430
Zn21	Zn2	0.500000	0.500000	0.223340
Zn31	Zn3	0.500000	0.500000	0.872570
Zn41	Zn4	0.500000	0.500000	0.776660
Zn51	Zn5	0.127430	0.500000	0.500000
Zn61	Zn6	0.223340	0.500000	0.500000
Zn71	Zn7	0.872570	0.500000	0.500000
Zn81	Zn8	0.776660	0.500000	0.500000
Zn91	Zn9	0.500000	0.127430	0.500000
Zn101	Zn10	0.500000	0.223340	0.500000
Zn111	Zn11	0.500000	0.872570	0.500000
Zn121	Zn12	0.500000	0.776660	0.500000
Zn131	Zn13	0.343290	0.343290	0.343290
Zn141	Zn14	0.278040	0.278040	0.278040
Zn151	Zn15	0.656710	0.656710	0.343290
Zn161	Zn16	0.721960	0.721960	0.278040
Zn171	Zn17	0.656710	0.343290	0.656710
Zn181	Zn18	0.721960	0.278040	0.721960
Zn191	Zn19	0.343290	0.656710	0.656710
Zn201	Zn20	0.278040	0.721960	0.721960
Zn211	Zn21	0.656710	0.656710	0.656710
Zn221	Zn22	0.721960	0.721960	0.721960
Zn231	Zn23	0.343290	0.343290	0.656710
Zn241	Zn24	0.278040	0.278040	0.721960
Zn251	Zn25	0.343290	0.656710	0.343290
Zn261	Zn26	0.278040	0.721960	0.278040
Zn271	Zn27	0.656710	0.343290	0.343290
Zn281	Zn28	0.721960	0.278040	0.278040
C2651	C265	0.356800	0.295500	0.000000
H1211	H121	0.349900	0.325300	0.000000
C2661	C266	0.378800	0.208700	0.000000
H1221	H122	0.386700	0.179100	0.000000
C2671	C267	0.643200	0.704500	0.000000
H1231	H123	0.650100	0.674700	0.000000
C2681	C268	0.621200	0.791300	0.000000
H1241	H124	0.613300	0.820900	0.000000
C2691	C269	0.643200	0.295500	0.000000
H1251	H125	0.650100	0.325300	0.000000
C2701	C270	0.621200	0.208700	0.000000
H1261	H126	0.613300	0.179100	0.000000
C2711	C271	0.356800	0.704500	0.000000
H1271	H127	0.349900	0.674700	0.000000
C2721	C272	0.378800	0.791300	0.000000
H1281	H128	0.386700	0.820900	0.000000
C2731	C273	0.000000	0.356800	0.295500
H1291	H129	0.000000	0.349900	0.325300
C2741	C274	0.000000	0.378800	0.208700
H1301	H130	0.000000	0.386700	0.179100
C2751	C275	0.000000	0.643200	0.704500
H1311	H131	0.000000	0.650100	0.674700
C2761	C276	0.000000	0.621200	0.791300
H1321	H132	0.000000	0.613300	0.820900
C2771	C277	0.000000	0.643200	0.295500
H1331	H133	0.000000	0.650100	0.325300
C2781	C278	0.000000	0.621200	0.208700
H1341	H134	0.000000	0.613300	0.179100
C2791	C279	0.000000	0.356800	0.704500
H1351	H135	0.000000	0.349900	0.674700
C2801	C280	0.000000	0.378800	0.791300
H1361	H136	0.000000	0.386700	0.820900
C2811	C281	0.295500	0.000000	0.356800
H1371	H137	0.325300	0.000000	0.349900
C2821	C282	0.208700	0.000000	0.378800
H1381	H138	0.179100	0.000000	0.386700
C2831	C283	0.704500	0.000000	0.643200
H1391	H139	0.674700	0.000000	0.650100
C2841	C284	0.791300	0.000000	0.621200
H1401	H140	0.820900	0.000000	0.613300
C2851	C285	0.295500	0.000000	0.643200
H1411	H141	0.325300	0.000000	0.650100
C2861	C286	0.208700	0.000000	0.621200
H1421	H142	0.179100	0.000000	0.613300
C2871	C287	0.704500	0.000000	0.356800
H1431	H143	0.674700	0.000000	0.349900
C2881	C288	0.791300	0.000000	0.378800
H1441	H144	0.820900	0.000000	0.386700
