data_YOFGOR_clean_PM
_symmetry_space_group_name_H-M	'P1'
_cell_length_a	8.947300
_cell_length_b	12.322300
_cell_length_c	20.065100
_cell_angle_alpha	85.357100
_cell_angle_beta	77.117400
_cell_angle_gamma	68.712100
_symmetry_Int_Tables_number 1

loop_
_symmetry_equiv_pos_as_xyz
'x,y,z'

loop_
_atom_site_label
_atom_site_type_symbol
_atom_site_fract_x
_atom_site_fract_y
_atom_site_fract_z
Mn11	Mn1	0.144420	0.469840	0.911400
Mn21	Mn2	0.364260	0.030160	0.411400
Mn31	Mn3	0.615390	0.160700	0.473300
Mn41	Mn4	0.249390	0.839300	0.526700
Mn51	Mn5	0.838690	0.660700	0.026700
Mn61	Mn6	0.805820	0.969840	0.588600
Mn71	Mn7	0.526090	0.339300	0.973300
Mn81	Mn8	0.525660	0.530160	0.088600
H11	H1	0.724500	0.425000	0.217400
H21	H2	0.710500	0.887800	0.169800
H31	H3	0.154800	0.830800	0.025800
H41	H4	0.665100	0.246000	0.735200
H51	H5	0.150300	0.746000	0.764800
H61	H6	0.819900	0.963800	0.911000
H71	H7	0.704000	0.500000	0.500000
H81	H8	0.999000	0.094000	0.412200
H91	H9	0.505200	0.906000	0.587800
H101	H10	0.630300	0.387800	0.330200
H111	H11	0.366900	0.575000	0.782600
H121	H12	0.646300	0.754000	0.264800
H131	H13	0.533700	0.536200	0.411000
H141	H14	0.843000	0.406000	0.912200
H151	H15	0.480900	0.463800	0.589000
H161	H16	0.954000	0.000000	0.000000
H171	H17	0.735600	0.669200	0.525800
H181	H18	0.161200	0.594000	0.087800
H191	H19	0.691900	0.925000	0.282600
H201	H20	0.011400	0.169200	0.974200
H211	H21	0.694700	0.036200	0.089000
H221	H22	0.464000	0.000000	0.000000
H231	H23	0.214000	0.500000	0.500000
H241	H24	0.899500	0.075000	0.717400
H251	H25	0.348300	0.612200	0.669800
H261	H26	0.768100	0.112200	0.830200
H271	H27	0.930600	0.330800	0.474200
H281	H28	0.661100	0.254000	0.235200
C11	C1	0.527480	0.384500	0.844140
C21	C2	0.178300	0.898580	0.015620
C31	C3	0.669150	0.180920	0.222180
C41	C4	0.600070	0.319080	0.722180
C51	C5	0.000910	0.713000	0.532980
C61	C6	0.005180	0.039040	0.447000
C71	C7	0.695520	0.593620	0.229740
C81	C8	0.202180	0.539040	0.053000
C91	C9	0.118100	0.500000	0.500000
C101	C10	0.843070	0.038320	0.817140
C111	C11	0.689000	0.983780	0.250220
C121	C12	0.874860	0.949720	0.865560
C131	C13	0.012310	0.741620	0.896960
C141	C14	0.659270	0.241620	0.603040
C151	C15	0.490420	0.449720	0.634440
C161	C16	0.574580	0.550280	0.365560
C171	C17	0.099940	0.398280	0.484040
C181	C18	0.641330	0.680920	0.277820
C191	C19	0.039140	0.906380	0.729740
C201	C20	0.368100	0.000000	0.000000
C211	C21	0.756120	0.615500	0.155860
C221	C22	0.246890	0.287000	0.467020
C231	C23	0.072250	0.819080	0.777820
C241	C24	0.422780	0.516220	0.750220
C251	C25	0.943920	0.398580	0.484380
C261	C26	0.518880	0.406380	0.770260
C271	C27	0.923000	0.016220	0.749780
C281	C28	0.661980	0.115500	0.344140
C291	C29	0.579170	0.660320	0.345540
C301	C30	0.689220	0.483780	0.249780
C311	C31	0.650890	0.258380	0.103040
C321	C32	0.503930	0.758380	0.396960
C331	C33	0.092500	0.101420	0.984380
C341	C34	0.698530	0.961680	0.182860
C351	C35	0.585030	0.339680	0.654460
C361	C36	0.674710	0.160320	0.154460
C371	C37	0.058500	0.000000	0.000000
C381	C38	0.794220	0.460960	0.947000
C391	C39	0.121620	0.884500	0.655860
C401	C40	0.491220	0.960960	0.553000
C411	C41	0.675260	0.093620	0.270260
C421	C42	0.690140	0.050280	0.134440
C431	C43	0.333980	0.898280	0.015960
C441	C44	0.989490	0.839680	0.845540
C451	C45	0.808500	0.500000	0.500000
C461	C46	0.826880	0.601420	0.515620
C471	C47	0.982260	0.601720	0.515960
C481	C48	0.463910	0.787000	0.032980
C491	C49	0.248220	0.101720	0.984040
C501	C50	0.631390	0.461680	0.317140
C511	C51	0.410210	0.538320	0.682860
C521	C52	0.283890	0.213000	0.967020
O11	O1	0.657660	0.233800	0.042480
O21	O2	0.933940	0.766200	0.957520
O31	O3	0.872700	0.036080	0.481720
O41	O4	0.349430	0.475860	0.045680
O51	O5	0.104420	0.536080	0.018280
O61	O6	0.143300	0.713160	0.524040
O71	O7	0.494150	0.857480	0.375020
O81	O8	0.264520	0.813420	0.638740
O91	O9	0.402860	0.440440	0.889040
O101	O10	0.716680	0.186580	0.361260
O111	O11	0.417340	0.213160	0.975960
O121	O12	0.871200	0.796340	0.555460
O131	O13	0.176660	0.296340	0.944540
O141	O14	0.145110	0.975860	0.454320
O151	O15	0.450140	0.733800	0.457520
O161	O16	0.658780	0.463920	0.981720
O171	O17	0.726650	0.142520	0.624980
O181	O18	0.827940	0.686580	0.138740
O191	O19	0.380500	0.286840	0.475960
O201	O20	0.870970	0.524140	0.954320
O211	O21	0.101630	0.642520	0.875020
O221	O22	0.593300	0.059560	0.389040
O231	O23	0.417540	0.703660	0.055460
O241	O24	0.732340	0.559560	0.110960
O251	O25	0.041900	0.940440	0.610960
O261	O26	0.641460	0.266200	0.542480
O271	O27	0.653260	0.313420	0.861260
O281	O28	0.619170	0.357480	0.124980
O291	O29	0.606460	0.786840	0.024040
O301	O30	0.390500	0.963920	0.518280
O311	O31	0.223000	0.203660	0.444540
O321	O32	0.575290	0.024140	0.545680
