data_YOGKOW_clean_PM
_symmetry_space_group_name_H-M	'P1'
_cell_length_a	27.063000
_cell_length_b	27.063000
_cell_length_c	16.107000
_cell_angle_alpha	90.000000
_cell_angle_beta	90.000000
_cell_angle_gamma	120.000000
_symmetry_Int_Tables_number 1

loop_
_symmetry_equiv_pos_as_xyz
'x,y,z'

loop_
_atom_site_label
_atom_site_type_symbol
_atom_site_fract_x
_atom_site_fract_y
_atom_site_fract_z
O11	O1	0.195120	0.283900	0.255730
O21	O2	0.242710	0.379190	0.242200
C11	C1	0.286700	0.327490	0.196400
C21	C2	0.286200	0.276240	0.195400
H11	H1	0.253400	0.242600	0.214400
C31	C3	0.237150	0.330700	0.233600
C41	C4	0.312630	0.182800	0.097600
C51	C5	0.291010	0.197100	0.024700
H21	H2	0.290600	0.232000	0.023300
C61	C6	0.271500	0.161800	0.958600
H31	H3	0.257600	0.172200	0.911500
O31	O3	0.861790	0.617230	0.589060
O41	O4	0.909380	0.712520	0.575530
C71	C7	0.953370	0.660820	0.529730
C81	C8	0.952870	0.609570	0.528730
H41	H4	0.920070	0.575930	0.547730
C91	C9	0.903820	0.664030	0.566930
C101	C10	0.979300	0.516130	0.430930
C111	C11	0.957680	0.530430	0.358030
H51	H5	0.957270	0.565330	0.356630
C121	C12	0.938170	0.495130	0.291930
H61	H6	0.924270	0.505530	0.244830
O51	O5	0.528450	0.950570	0.922400
O61	O6	0.576040	0.045860	0.908870
C131	C13	0.620030	0.994160	0.863070
C141	C14	0.619530	0.942910	0.862070
H71	H7	0.586730	0.909270	0.881070
C151	C15	0.570480	0.997370	0.900270
C161	C16	0.645960	0.849470	0.764270
C171	C17	0.624340	0.863770	0.691370
H81	H8	0.623930	0.898670	0.689970
C181	C18	0.604830	0.828470	0.625270
H91	H9	0.590930	0.838870	0.578170
O71	O7	0.716100	0.911220	0.255730
O81	O8	0.620810	0.863520	0.242200
C191	C19	0.672510	0.959210	0.196400
C201	C20	0.723760	0.009960	0.195400
H101	H10	0.757400	0.010800	0.214400
C211	C21	0.669300	0.906450	0.233600
C221	C22	0.817200	0.129830	0.097600
C231	C23	0.802900	0.093910	0.024700
H111	H11	0.768000	0.058600	0.023300
C241	C24	0.838200	0.109700	0.958600
H121	H12	0.827800	0.085400	0.911500
O91	O9	0.382770	0.244550	0.589060
O101	O10	0.287480	0.196850	0.575530
C251	C25	0.339180	0.292540	0.529730
C261	C26	0.390430	0.343290	0.528730
H131	H13	0.424070	0.344130	0.547730
C271	C27	0.335970	0.239780	0.566930
C281	C28	0.483870	0.463160	0.430930
C291	C29	0.469570	0.427240	0.358030
H141	H14	0.434670	0.391930	0.356630
C301	C30	0.504870	0.443030	0.291930
H151	H15	0.494470	0.418730	0.244830
O111	O11	0.049430	0.577890	0.922400
O121	O12	0.954140	0.530190	0.908870
C311	C31	0.005840	0.625880	0.863070
C321	C32	0.057090	0.676630	0.862070
H161	H16	0.090730	0.677470	0.881070
C331	C33	0.002630	0.573120	0.900270
C341	C34	0.150530	0.796500	0.764270
C351	C35	0.136230	0.760580	0.691370
H171	H17	0.101330	0.725270	0.689970
C361	C36	0.171530	0.776370	0.625270
H181	H18	0.161130	0.752070	0.578170
O131	O13	0.088780	0.804880	0.255730
O141	O14	0.136480	0.757290	0.242200
C371	C37	0.040790	0.713300	0.196400
C381	C38	0.990040	0.713800	0.195400
H191	H19	0.989200	0.746600	0.214400
C391	C39	0.093550	0.762850	0.233600
C401	C40	0.870170	0.687370	0.097600
C411	C41	0.906090	0.708990	0.024700
H201	H20	0.941400	0.709400	0.023300
C421	C42	0.890300	0.728500	0.958600
H211	H21	0.914600	0.742400	0.911500
O151	O15	0.755450	0.138210	0.589060
O161	O16	0.803150	0.090620	0.575530
C431	C43	0.707460	0.046630	0.529730
C441	C44	0.656710	0.047130	0.528730
H221	H22	0.655870	0.079930	0.547730
C451	C45	0.760220	0.096180	0.566930
C461	C46	0.536840	0.020700	0.430930
C471	C47	0.572760	0.042320	0.358030
H231	H23	0.608070	0.042730	0.356630
C481	C48	0.556970	0.061830	0.291930
H241	H24	0.581270	0.075730	0.244830
O171	O17	0.422110	0.471550	0.922400
O181	O18	0.469810	0.423960	0.908870
C491	C49	0.374120	0.379970	0.863070
C501	C50	0.323370	0.380470	0.862070
H251	H25	0.322530	0.413270	0.881070
C511	C51	0.426880	0.429520	0.900270
C521	C52	0.203500	0.354040	0.764270
C531	C53	0.239420	0.375660	0.691370
H261	H26	0.274730	0.376070	0.689970
C541	C54	0.223630	0.395170	0.625270
H271	H27	0.247930	0.409070	0.578170
O191	O19	0.283900	0.195120	0.744270
O201	O20	0.379190	0.242710	0.757800
C551	C55	0.327490	0.286700	0.803600
C561	C56	0.276240	0.286200	0.804600
H281	H28	0.242600	0.253400	0.785600
C571	C57	0.330700	0.237150	0.766400
C581	C58	0.182800	0.312630	0.902400
C591	C59	0.197100	0.291010	0.975300
H291	H29	0.232000	0.290600	0.976700
C601	C60	0.161800	0.271500	0.041400
H301	H30	0.172200	0.257600	0.088500
O211	O21	0.950570	0.528450	0.077600
O221	O22	0.045860	0.576040	0.091130
C611	C61	0.994160	0.620030	0.136930
C621	C62	0.942910	0.619530	0.137930
H311	H31	0.909270	0.586730	0.118930
C631	C63	0.997370	0.570480	0.099730
C641	C64	0.849470	0.645960	0.235730
C651	C65	0.863770	0.624340	0.308630
H321	H32	0.898670	0.623930	0.310030
C661	C66	0.828470	0.604830	0.374730
H331	H33	0.838870	0.590930	0.421830
O231	O23	0.617230	0.861790	0.410940
O241	O24	0.712520	0.909380	0.424470
C671	C67	0.660820	0.953370	0.470270
C681	C68	0.609570	0.952870	0.471270
H341	H34	0.575930	0.920070	0.452270
C691	C69	0.664030	0.903820	0.433070
C701	C70	0.516130	0.979300	0.569070
C711	C71	0.530430	0.957680	0.641970
H351	H35	0.565330	0.957270	0.643370
C721	C72	0.495130	0.938170	0.708070
H361	H36	0.505530	0.924270	0.755170
O251	O25	0.911220	0.716100	0.744270
O261	O26	0.863520	0.620810	0.757800
C731	C73	0.959210	0.672510	0.803600
C741	C74	0.009960	0.723760	0.804600
H371	H37	0.010800	0.757400	0.785600
C751	C75	0.906450	0.669300	0.766400
C761	C76	0.129830	0.817200	0.902400
C771	C77	0.093910	0.802900	0.975300
H381	H38	0.058600	0.768000	0.976700
C781	C78	0.109700	0.838200	0.041400
H391	H39	0.085400	0.827800	0.088500
O271	O27	0.577890	0.049430	0.077600
O281	O28	0.530190	0.954140	0.091130
C791	C79	0.625880	0.005840	0.136930
C801	C80	0.676630	0.057090	0.137930
H401	H40	0.677470	0.090730	0.118930
C811	C81	0.573120	0.002630	0.099730
C821	C82	0.796500	0.150530	0.235730
C831	C83	0.760580	0.136230	0.308630
H411	H41	0.725270	0.101330	0.310030
C841	C84	0.776370	0.171530	0.374730
H421	H42	0.752070	0.161130	0.421830
O291	O29	0.244550	0.382770	0.410940
O301	O30	0.196850	0.287480	0.424470
C851	C85	0.292540	0.339180	0.470270
C861	C86	0.343290	0.390430	0.471270
H431	H43	0.344130	0.424070	0.452270
C871	C87	0.239780	0.335970	0.433070
C881	C88	0.463160	0.483870	0.569070
C891	C89	0.427240	0.469570	0.641970
H441	H44	0.391930	0.434670	0.643370
C901	C90	0.443030	0.504870	0.708070
H451	H45	0.418730	0.494470	0.755170
O311	O31	0.804880	0.088780	0.744270
O321	O32	0.757290	0.136480	0.757800
C911	C91	0.713300	0.040790	0.803600
C921	C92	0.713800	0.990040	0.804600
H461	H46	0.746600	0.989200	0.785600
C931	C93	0.762850	0.093550	0.766400
C941	C94	0.687370	0.870170	0.902400
C951	C95	0.708990	0.906090	0.975300
H471	H47	0.709400	0.941400	0.976700
C961	C96	0.728500	0.890300	0.041400
H481	H48	0.742400	0.914600	0.088500
O331	O33	0.471550	0.422110	0.077600
O341	O34	0.423960	0.469810	0.091130
C971	C97	0.379970	0.374120	0.136930
C981	C98	0.380470	0.323370	0.137930
H491	H49	0.413270	0.322530	0.118930
C991	C99	0.429520	0.426880	0.099730
C1001	C100	0.354040	0.203500	0.235730
C1011	C101	0.375660	0.239420	0.308630
H501	H50	0.376070	0.274730	0.310030
C1021	C102	0.395170	0.223630	0.374730
H511	H51	0.409070	0.247930	0.421830
O351	O35	0.138210	0.755450	0.410940
O361	O36	0.090620	0.803150	0.424470
C1031	C103	0.046630	0.707460	0.470270
C1041	C104	0.047130	0.656710	0.471270
H521	H52	0.079930	0.655870	0.452270
C1051	C105	0.096180	0.760220	0.433070
C1061	C106	0.020700	0.536840	0.569070
C1071	C107	0.042320	0.572760	0.641970
H531	H53	0.042730	0.608070	0.643370
C1081	C108	0.061830	0.556970	0.708070
H541	H54	0.075730	0.581270	0.755170
O371	O37	0.804880	0.716100	0.744270
O381	O38	0.757290	0.620810	0.757800
C1091	C109	0.713300	0.672510	0.803600
C1101	C110	0.713800	0.723760	0.804600
H551	H55	0.746600	0.757400	0.785600
C1111	C111	0.762850	0.669300	0.766400
C1121	C112	0.687370	0.817200	0.902400
C1131	C113	0.708990	0.802900	0.975300
H561	H56	0.709400	0.768000	0.976700
C1141	C114	0.728500	0.838200	0.041400
H571	H57	0.742400	0.827800	0.088500
O391	O39	0.471550	0.049430	0.077600
O401	O40	0.423960	0.954140	0.091130
C1151	C115	0.379970	0.005840	0.136930
C1161	C116	0.380470	0.057090	0.137930
H581	H58	0.413270	0.090730	0.118930
C1171	C117	0.429520	0.002630	0.099730
C1181	C118	0.354040	0.150530	0.235730
C1191	C119	0.375660	0.136230	0.308630
H591	H59	0.376070	0.101330	0.310030
C1201	C120	0.395170	0.171530	0.374730
H601	H60	0.409070	0.161130	0.421830
O411	O41	0.138210	0.382770	0.410940
O421	O42	0.090620	0.287480	0.424470
C1211	C121	0.046630	0.339180	0.470270
C1221	C122	0.047130	0.390430	0.471270
H611	H61	0.079930	0.424070	0.452270
C1231	C123	0.096180	0.335970	0.433070
C1241	C124	0.020700	0.483870	0.569070
C1251	C125	0.042320	0.469570	0.641970
H621	H62	0.042730	0.434670	0.643370
C1261	C126	0.061830	0.504870	0.708070
H631	H63	0.075730	0.494470	0.755170
O431	O43	0.283900	0.088780	0.744270
O441	O44	0.379190	0.136480	0.757800
C1271	C127	0.327490	0.040790	0.803600
C1281	C128	0.276240	0.990040	0.804600
H641	H64	0.242600	0.989200	0.785600
C1291	C129	0.330700	0.093550	0.766400
C1301	C130	0.182800	0.870170	0.902400
C1311	C131	0.197100	0.906090	0.975300
H651	H65	0.232000	0.941400	0.976700
C1321	C132	0.161800	0.890300	0.041400
H661	H66	0.172200	0.914600	0.088500
O451	O45	0.950570	0.422110	0.077600
O461	O46	0.045860	0.469810	0.091130
C1331	C133	0.994160	0.374120	0.136930
C1341	C134	0.942910	0.323370	0.137930
H671	H67	0.909270	0.322530	0.118930
C1351	C135	0.997370	0.426880	0.099730
C1361	C136	0.849470	0.203500	0.235730
C1371	C137	0.863770	0.239420	0.308630
H681	H68	0.898670	0.274730	0.310030
C1381	C138	0.828470	0.223630	0.374730
H691	H69	0.838870	0.247930	0.421830
O471	O47	0.617230	0.755450	0.410940
O481	O48	0.712520	0.803150	0.424470
C1391	C139	0.660820	0.707460	0.470270
C1401	C140	0.609570	0.656710	0.471270
H701	H70	0.575930	0.655870	0.452270
C1411	C141	0.664030	0.760220	0.433070
C1421	C142	0.516130	0.536840	0.569070
C1431	C143	0.530430	0.572760	0.641970
H711	H71	0.565330	0.608070	0.643370
C1441	C144	0.495130	0.556970	0.708070
H721	H72	0.505530	0.581270	0.755170
O491	O49	0.911220	0.195120	0.744270
O501	O50	0.863520	0.242710	0.757800
C1451	C145	0.959210	0.286700	0.803600
C1461	C146	0.009960	0.286200	0.804600
H731	H73	0.010800	0.253400	0.785600
C1471	C147	0.906450	0.237150	0.766400
C1481	C148	0.129830	0.312630	0.902400
C1491	C149	0.093910	0.291010	0.975300
H741	H74	0.058600	0.290600	0.976700
C1501	C150	0.109700	0.271500	0.041400
H751	H75	0.085400	0.257600	0.088500
O511	O51	0.577890	0.528450	0.077600
O521	O52	0.530190	0.576040	0.091130
C1511	C151	0.625880	0.620030	0.136930
C1521	C152	0.676630	0.619530	0.137930
H761	H76	0.677470	0.586730	0.118930
C1531	C153	0.573120	0.570480	0.099730
C1541	C154	0.796500	0.645960	0.235730
C1551	C155	0.760580	0.624340	0.308630
H771	H77	0.725270	0.623930	0.310030
C1561	C156	0.776370	0.604830	0.374730
H781	H78	0.752070	0.590930	0.421830
O531	O53	0.244550	0.861790	0.410940
O541	O54	0.196850	0.909380	0.424470
C1571	C157	0.292540	0.953370	0.470270
C1581	C158	0.343290	0.952870	0.471270
H791	H79	0.344130	0.920070	0.452270
C1591	C159	0.239780	0.903820	0.433070
C1601	C160	0.463160	0.979300	0.569070
C1611	C161	0.427240	0.957680	0.641970
H801	H80	0.391930	0.957270	0.643370
C1621	C162	0.443030	0.938170	0.708070
H811	H81	0.418730	0.924270	0.755170
O551	O55	0.716100	0.804880	0.255730
O561	O56	0.620810	0.757290	0.242200
C1631	C163	0.672510	0.713300	0.196400
C1641	C164	0.723760	0.713800	0.195400
H821	H82	0.757400	0.746600	0.214400
C1651	C165	0.669300	0.762850	0.233600
C1661	C166	0.817200	0.687370	0.097600
C1671	C167	0.802900	0.708990	0.024700
H831	H83	0.768000	0.709400	0.023300
C1681	C168	0.838200	0.728500	0.958600
H841	H84	0.827800	0.742400	0.911500
O571	O57	0.382770	0.138210	0.589060
O581	O58	0.287480	0.090620	0.575530
C1691	C169	0.339180	0.046630	0.529730
C1701	C170	0.390430	0.047130	0.528730
H851	H85	0.424070	0.079930	0.547730
C1711	C171	0.335970	0.096180	0.566930
C1721	C172	0.483870	0.020700	0.430930
C1731	C173	0.469570	0.042320	0.358030
H861	H86	0.434670	0.042730	0.356630
C1741	C174	0.504870	0.061830	0.291930
H871	H87	0.494470	0.075730	0.244830
O591	O59	0.049430	0.471550	0.922400
O601	O60	0.954140	0.423960	0.908870
C1751	C175	0.005840	0.379970	0.863070
C1761	C176	0.057090	0.380470	0.862070
H881	H88	0.090730	0.413270	0.881070
C1771	C177	0.002630	0.429520	0.900270
C1781	C178	0.150530	0.354040	0.764270
C1791	C179	0.136230	0.375660	0.691370
H891	H89	0.101330	0.376070	0.689970
C1801	C180	0.171530	0.395170	0.625270
H901	H90	0.161130	0.409070	0.578170
O611	O61	0.088780	0.283900	0.255730
O621	O62	0.136480	0.379190	0.242200
C1811	C181	0.040790	0.327490	0.196400
C1821	C182	0.990040	0.276240	0.195400
H911	H91	0.989200	0.242600	0.214400
C1831	C183	0.093550	0.330700	0.233600
C1841	C184	0.870170	0.182800	0.097600
C1851	C185	0.906090	0.197100	0.024700
H921	H92	0.941400	0.232000	0.023300
C1861	C186	0.890300	0.161800	0.958600
H931	H93	0.914600	0.172200	0.911500
O631	O63	0.755450	0.617230	0.589060
O641	O64	0.803150	0.712520	0.575530
C1871	C187	0.707460	0.660820	0.529730
C1881	C188	0.656710	0.609570	0.528730
H941	H94	0.655870	0.575930	0.547730
C1891	C189	0.760220	0.664030	0.566930
C1901	C190	0.536840	0.516130	0.430930
C1911	C191	0.572760	0.530430	0.358030
H951	H95	0.608070	0.565330	0.356630
C1921	C192	0.556970	0.495130	0.291930
H961	H96	0.581270	0.505530	0.244830
O651	O65	0.422110	0.950570	0.922400
O661	O66	0.469810	0.045860	0.908870
C1931	C193	0.374120	0.994160	0.863070
C1941	C194	0.323370	0.942910	0.862070
H971	H97	0.322530	0.909270	0.881070
C1951	C195	0.426880	0.997370	0.900270
C1961	C196	0.203500	0.849470	0.764270
C1971	C197	0.239420	0.863770	0.691370
H981	H98	0.274730	0.898670	0.689970
C1981	C198	0.223630	0.828470	0.625270
H991	H99	0.247930	0.838870	0.578170
O671	O67	0.195120	0.911220	0.255730
O681	O68	0.242710	0.863520	0.242200
C1991	C199	0.286700	0.959210	0.196400
C2001	C200	0.286200	0.009960	0.195400
H1001	H100	0.253400	0.010800	0.214400
C2011	C201	0.237150	0.906450	0.233600
C2021	C202	0.312630	0.129830	0.097600
C2031	C203	0.291010	0.093910	0.024700
H1011	H101	0.290600	0.058600	0.023300
C2041	C204	0.271500	0.109700	0.958600
H1021	H102	0.257600	0.085400	0.911500
O691	O69	0.861790	0.244550	0.589060
O701	O70	0.909380	0.196850	0.575530
C2051	C205	0.953370	0.292540	0.529730
C2061	C206	0.952870	0.343290	0.528730
H1031	H103	0.920070	0.344130	0.547730
C2071	C207	0.903820	0.239780	0.566930
C2081	C208	0.979300	0.463160	0.430930
C2091	C209	0.957680	0.427240	0.358030
H1041	H104	0.957270	0.391930	0.356630
C2101	C210	0.938170	0.443030	0.291930
H1051	H105	0.924270	0.418730	0.244830
O711	O71	0.528450	0.577890	0.922400
O721	O72	0.576040	0.530190	0.908870
C2111	C211	0.620030	0.625880	0.863070
C2121	C212	0.619530	0.676630	0.862070
H1061	H106	0.586730	0.677470	0.881070
C2131	C213	0.570480	0.573120	0.900270
C2141	C214	0.645960	0.796500	0.764270
C2151	C215	0.624340	0.760580	0.691370
H1071	H107	0.623930	0.725270	0.689970
C2161	C216	0.604830	0.776370	0.625270
H1081	H108	0.590930	0.752070	0.578170
Zn11	Zn1	0.134430	0.268860	0.341170
Zn21	Zn2	0.801100	0.602190	0.674500
Zn31	Zn3	0.467760	0.935530	0.007840
Zn41	Zn4	0.731140	0.865570	0.341170
Zn51	Zn5	0.397810	0.198900	0.674500
Zn61	Zn6	0.064470	0.532240	0.007840
Zn71	Zn7	0.134430	0.865570	0.341170
Zn81	Zn8	0.801100	0.198900	0.674500
Zn91	Zn9	0.467760	0.532240	0.007840
Zn101	Zn10	0.268860	0.134430	0.658830
Zn111	Zn11	0.935530	0.467760	0.992160
Zn121	Zn12	0.602190	0.801100	0.325500
Zn131	Zn13	0.865570	0.731140	0.658830
Zn141	Zn14	0.532240	0.064470	0.992160
Zn151	Zn15	0.198900	0.397810	0.325500
Zn161	Zn16	0.865570	0.134430	0.658830
Zn171	Zn17	0.532240	0.467760	0.992160
Zn181	Zn18	0.198900	0.801100	0.325500
C2171	C217	0.333330	0.376620	0.166670
H1091	H109	0.333330	0.411720	0.166670
C2181	C218	0.333330	0.273310	0.166670
C2191	C219	0.333330	0.218470	0.166670
C2201	C220	0.000000	0.709950	0.500000
H1101	H110	0.000000	0.745050	0.500000
C2211	C221	0.000000	0.606640	0.500000
C2221	C222	0.000000	0.551800	0.500000
C2231	C223	0.623380	0.956720	0.166670
H1111	H111	0.588280	0.921620	0.166670
C2241	C224	0.726690	0.060030	0.166670
C2251	C225	0.781530	0.114870	0.166670
C2261	C226	0.290050	0.290050	0.500000
H1121	H112	0.254950	0.254950	0.500000
C2271	C227	0.393360	0.393360	0.500000
C2281	C228	0.448200	0.448200	0.500000
C2291	C229	0.043280	0.666670	0.166670
H1131	H113	0.078380	0.666670	0.166670
C2301	C230	0.939970	0.666670	0.166670
C2311	C231	0.885130	0.666670	0.166670
C2321	C232	0.709950	0.000000	0.500000
H1141	H114	0.745050	0.000000	0.500000
C2331	C233	0.606640	0.000000	0.500000
C2341	C234	0.551800	0.000000	0.500000
C2351	C235	0.376620	0.333330	0.833330
H1151	H115	0.411720	0.333330	0.833330
C2361	C236	0.273310	0.333330	0.833330
C2371	C237	0.218470	0.333330	0.833330
C2381	C238	0.956720	0.623380	0.833330
H1161	H116	0.921620	0.588280	0.833330
C2391	C239	0.060030	0.726690	0.833330
C2401	C240	0.114870	0.781530	0.833330
C2411	C241	0.666670	0.043280	0.833330
H1171	H117	0.666670	0.078380	0.833330
C2421	C242	0.666670	0.939970	0.833330
C2431	C243	0.666670	0.885130	0.833330
C2441	C244	0.666670	0.623380	0.833330
H1181	H118	0.666670	0.588280	0.833330
C2451	C245	0.666670	0.726690	0.833330
C2461	C246	0.666670	0.781530	0.833330
C2471	C247	0.333330	0.956720	0.166670
H1191	H119	0.333330	0.921620	0.166670
C2481	C248	0.333330	0.060030	0.166670
C2491	C249	0.333330	0.114870	0.166670
C2501	C250	0.376620	0.043280	0.833330
H1201	H120	0.411720	0.078380	0.833330
C2511	C251	0.273310	0.939970	0.833330
C2521	C252	0.218470	0.885130	0.833330
C2531	C253	0.709950	0.709950	0.500000
H1211	H121	0.745050	0.745050	0.500000
C2541	C254	0.606640	0.606640	0.500000
C2551	C255	0.551800	0.551800	0.500000
C2561	C256	0.956720	0.333330	0.833330
H1221	H122	0.921620	0.333330	0.833330
C2571	C257	0.060030	0.333330	0.833330
C2581	C258	0.114870	0.333330	0.833330
C2591	C259	0.623380	0.666670	0.166670
H1231	H123	0.588280	0.666670	0.166670
C2601	C260	0.726690	0.666670	0.166670
C2611	C261	0.781530	0.666670	0.166670
C2621	C262	0.290050	0.000000	0.500000
H1241	H124	0.254950	0.000000	0.500000
C2631	C263	0.393360	0.000000	0.500000
C2641	C264	0.448200	0.000000	0.500000
C2651	C265	0.043280	0.376620	0.166670
H1251	H125	0.078380	0.411720	0.166670
C2661	C266	0.939970	0.273310	0.166670
C2671	C267	0.885130	0.218470	0.166670
C2681	C268	0.000000	0.290050	0.500000
H1261	H126	0.000000	0.254950	0.500000
C2691	C269	0.000000	0.393360	0.500000
C2701	C270	0.000000	0.448200	0.500000
