data_YOGVEX_clean_PM
_symmetry_space_group_name_H-M	'P1'
_cell_length_a	8.130000
_cell_length_b	20.174000
_cell_length_c	9.014000
_cell_angle_alpha	90.000000
_cell_angle_beta	91.423000
_cell_angle_gamma	90.000000
_symmetry_Int_Tables_number 1

loop_
_symmetry_equiv_pos_as_xyz
'x,y,z'

loop_
_atom_site_label
_atom_site_type_symbol
_atom_site_fract_x
_atom_site_fract_y
_atom_site_fract_z
N11	N1	0.351500	0.572900	0.610390
N21	N2	0.181200	0.579470	0.588300
N31	N3	0.277700	0.664510	0.714000
N41	N4	0.303500	0.726630	0.776200
N51	N5	0.173600	0.758970	0.770200
N61	N6	0.201600	0.821690	0.828900
N71	N7	0.138100	0.919250	0.908710
N81	N8	0.308600	0.912890	0.920600
N91	N9	0.659600	0.496660	0.694160
N101	N10	0.581800	0.495260	0.830650
N111	N11	0.847500	0.497570	0.868270
N121	N12	0.003900	0.499550	0.931180
C11	C1	0.405300	0.623780	0.685200
H11	H1	0.516700	0.631200	0.715100
C21	C2	0.140400	0.635180	0.650000
H21	H2	0.032300	0.653000	0.650900
C31	C3	0.077700	0.865010	0.851900
H31	H3	0.964500	0.857000	0.829900
C41	C4	0.343800	0.853790	0.871600
H41	H4	0.451400	0.835800	0.866300
C51	C5	0.818400	0.497770	0.719000
H51	H5	0.899900	0.498600	0.645200
C61	C6	0.696700	0.496120	0.933600
H61	H6	0.679100	0.495800	0.037500
N131	N13	0.148500	0.072900	0.889610
N141	N14	0.318800	0.079470	0.911700
N151	N15	0.222300	0.164510	0.786000
N161	N16	0.196500	0.226630	0.723800
N171	N17	0.326400	0.258970	0.729800
N181	N18	0.298400	0.321690	0.671100
N191	N19	0.361900	0.419250	0.591290
N201	N20	0.191400	0.412890	0.579400
N211	N21	0.840400	0.996660	0.805840
N221	N22	0.918200	0.995260	0.669350
N231	N23	0.652500	0.997570	0.631730
N241	N24	0.496100	0.999550	0.568820
C71	C7	0.094700	0.123780	0.814800
H71	H7	0.983300	0.131200	0.784900
C81	C8	0.359600	0.135180	0.850000
H81	H8	0.467700	0.153000	0.849100
C91	C9	0.422300	0.365010	0.648100
H91	H9	0.535500	0.357000	0.670100
C101	C10	0.156200	0.353790	0.628400
H101	H10	0.048600	0.335800	0.633700
C111	C11	0.681600	0.997770	0.781000
H111	H11	0.600100	0.998600	0.854800
C121	C12	0.803300	0.996120	0.566400
H121	H12	0.820900	0.995800	0.462500
N251	N25	0.648500	0.427100	0.389610
N261	N26	0.818800	0.420530	0.411700
N271	N27	0.722300	0.335490	0.286000
N281	N28	0.696500	0.273370	0.223800
N291	N29	0.826400	0.241030	0.229800
N301	N30	0.798400	0.178310	0.171100
N311	N31	0.861900	0.080750	0.091290
N321	N32	0.691400	0.087110	0.079400
N331	N33	0.340400	0.503340	0.305840
N341	N34	0.418200	0.504740	0.169350
N351	N35	0.152500	0.502430	0.131730
N361	N36	0.996100	0.500450	0.068820
C131	C13	0.594700	0.376220	0.314800
H131	H13	0.483300	0.368800	0.284900
C141	C14	0.859600	0.364820	0.350000
H141	H14	0.967700	0.347000	0.349100
C151	C15	0.922300	0.134990	0.148100
H151	H15	0.035500	0.143000	0.170100
C161	C16	0.656200	0.146210	0.128400
H161	H16	0.548600	0.164200	0.133700
C171	C17	0.181600	0.502230	0.281000
H171	H17	0.100100	0.501400	0.354800
C181	C18	0.303300	0.503880	0.066400
H181	H18	0.320900	0.504200	0.962500
N371	N37	0.851500	0.927100	0.110390
N381	N38	0.681200	0.920530	0.088300
N391	N39	0.777700	0.835490	0.214000
N401	N40	0.803500	0.773370	0.276200
N411	N41	0.673600	0.741030	0.270200
N421	N42	0.701600	0.678310	0.328900
N431	N43	0.638100	0.580750	0.408710
N441	N44	0.808600	0.587110	0.420600
N451	N45	0.159600	0.003340	0.194160
N461	N46	0.081800	0.004740	0.330650
N471	N47	0.347500	0.002430	0.368270
N481	N48	0.503900	0.000450	0.431180
C191	C19	0.905300	0.876220	0.185200
H191	H19	0.016700	0.868800	0.215100
C201	C20	0.640400	0.864820	0.150000
H201	H20	0.532300	0.847000	0.150900
C211	C21	0.577700	0.634990	0.351900
H211	H21	0.464500	0.643000	0.329900
C221	C22	0.843800	0.646210	0.371600
H221	H22	0.951400	0.664200	0.366300
C231	C23	0.318400	0.002230	0.219000
H231	H23	0.399900	0.001400	0.145200
C241	C24	0.196700	0.003880	0.433600
H241	H24	0.179100	0.004200	0.537500
Zn11	Zn1	0.500000	0.500000	0.500000
Zn21	Zn2	0.000000	0.000000	0.000000
