data_YOKKIU_clean_PM
_symmetry_space_group_name_H-M	'P1'
_cell_length_a	12.329000
_cell_length_b	21.690000
_cell_length_c	17.435000
_cell_angle_alpha	90.000000
_cell_angle_beta	96.320000
_cell_angle_gamma	90.000000
_symmetry_Int_Tables_number 1

loop_
_symmetry_equiv_pos_as_xyz
'x,y,z'

loop_
_atom_site_label
_atom_site_type_symbol
_atom_site_fract_x
_atom_site_fract_y
_atom_site_fract_z
Co11	Co1	0.763650	0.384260	0.893180
C11	C1	0.786800	0.403600	0.123700
C21	C2	0.846200	0.363600	0.174900
H11	H1	0.877900	0.328500	0.156500
C31	C3	0.857900	0.376200	0.253000
H21	H2	0.897100	0.349400	0.287200
C41	C4	0.811600	0.428300	0.280500
H31	H3	0.821900	0.437200	0.333000
C51	C5	0.749300	0.468000	0.230300
C61	C6	0.736600	0.454800	0.151600
H41	H4	0.694300	0.480400	0.117700
C71	C7	0.776000	0.391100	0.038500
C81	C8	0.695700	0.524200	0.259800
C91	C9	0.561500	0.262700	0.201000
C101	C10	0.560400	0.326600	0.201000
H51	H5	0.600600	0.348300	0.167800
C111	C11	0.631200	0.229100	0.148800
C121	C12	0.450000	0.301400	0.863800
C131	C13	0.339500	0.296400	0.838000
H61	H6	0.305000	0.321600	0.799500
C141	C14	0.283600	0.249700	0.875000
H71	H7	0.209700	0.243200	0.860200
C151	C15	0.338200	0.213300	0.933700
H81	H8	0.299600	0.183300	0.957500
C161	C16	0.449100	0.221200	0.956900
H91	H9	0.485000	0.196900	0.995600
C171	C17	0.504400	0.266500	0.920400
N11	N1	0.528000	0.344600	0.840600
N21	N2	0.619200	0.332300	0.882700
N31	N3	0.612900	0.286400	0.931000
O11	O1	0.735300	0.431700	0.992500
O21	O2	0.810000	0.341780	0.012800
O31	O3	0.615900	0.545900	0.219100
O41	O4	0.735700	0.543900	0.323900
O51	O5	0.664600	0.259900	0.094800
O61	O6	0.648900	0.172880	0.162300
Co21	Co2	0.263650	0.884260	0.893180
C181	C18	0.286800	0.903600	0.123700
C191	C19	0.346200	0.863600	0.174900
H101	H10	0.377900	0.828500	0.156500
C201	C20	0.357900	0.876200	0.253000
H111	H11	0.397100	0.849400	0.287200
C211	C21	0.311600	0.928300	0.280500
H121	H12	0.321900	0.937200	0.333000
C221	C22	0.249300	0.968000	0.230300
C231	C23	0.236600	0.954800	0.151600
H131	H13	0.194300	0.980400	0.117700
C241	C24	0.276000	0.891100	0.038500
C251	C25	0.195700	0.024200	0.259800
C261	C26	0.061500	0.762700	0.201000
C271	C27	0.060400	0.826600	0.201000
H141	H14	0.100600	0.848300	0.167800
C281	C28	0.131200	0.729100	0.148800
C291	C29	0.950000	0.801400	0.863800
C301	C30	0.839500	0.796400	0.838000
H151	H15	0.805000	0.821600	0.799500
C311	C31	0.783600	0.749700	0.875000
H161	H16	0.709700	0.743200	0.860200
C321	C32	0.838200	0.713300	0.933700
H171	H17	0.799600	0.683300	0.957500
C331	C33	0.949100	0.721200	0.956900
H181	H18	0.985000	0.696900	0.995600
C341	C34	0.004400	0.766500	0.920400
N41	N4	0.028000	0.844600	0.840600
N51	N5	0.119200	0.832300	0.882700
N61	N6	0.112900	0.786400	0.931000
O71	O7	0.235300	0.931700	0.992500
O81	O8	0.310000	0.841780	0.012800
O91	O9	0.115900	0.045900	0.219100
O101	O10	0.235700	0.043900	0.323900
O111	O11	0.164600	0.759900	0.094800
O121	O12	0.148900	0.672880	0.162300
Co31	Co3	0.236350	0.384260	0.606820
C351	C35	0.213200	0.403600	0.376300
C361	C36	0.153800	0.363600	0.325100
H191	H19	0.122100	0.328500	0.343500
C371	C37	0.142100	0.376200	0.247000
H201	H20	0.102900	0.349400	0.212800
C381	C38	0.188400	0.428300	0.219500
H211	H21	0.178100	0.437200	0.167000
C391	C39	0.250700	0.468000	0.269700
C401	C40	0.263400	0.454800	0.348400
H221	H22	0.305700	0.480400	0.382300
C411	C41	0.224000	0.391100	0.461500
C421	C42	0.304300	0.524200	0.240200
C431	C43	0.438500	0.262700	0.299000
C441	C44	0.439600	0.326600	0.299000
H231	H23	0.399400	0.348300	0.332200
C451	C45	0.368800	0.229100	0.351200
C461	C46	0.550000	0.301400	0.636200
C471	C47	0.660500	0.296400	0.662000
H241	H24	0.695000	0.321600	0.700500
C481	C48	0.716400	0.249700	0.625000
H251	H25	0.790300	0.243200	0.639800
C491	C49	0.661800	0.213300	0.566300
H261	H26	0.700400	0.183300	0.542500
C501	C50	0.550900	0.221200	0.543100
H271	H27	0.515000	0.196900	0.504400
C511	C51	0.495600	0.266500	0.579600
N71	N7	0.472000	0.344600	0.659400
N81	N8	0.380800	0.332300	0.617300
N91	N9	0.387100	0.286400	0.569000
O131	O13	0.264700	0.431700	0.507500
O141	O14	0.190000	0.341780	0.487200
O151	O15	0.384100	0.545900	0.280900
O161	O16	0.264300	0.543900	0.176100
O171	O17	0.335400	0.259900	0.405200
O181	O18	0.351100	0.172880	0.337700
Co41	Co4	0.736350	0.884260	0.606820
C521	C52	0.713200	0.903600	0.376300
C531	C53	0.653800	0.863600	0.325100
H281	H28	0.622100	0.828500	0.343500
C541	C54	0.642100	0.876200	0.247000
H291	H29	0.602900	0.849400	0.212800
C551	C55	0.688400	0.928300	0.219500
H301	H30	0.678100	0.937200	0.167000
C561	C56	0.750700	0.968000	0.269700
C571	C57	0.763400	0.954800	0.348400
H311	H31	0.805700	0.980400	0.382300
C581	C58	0.724000	0.891100	0.461500
C591	C59	0.804300	0.024200	0.240200
C601	C60	0.938500	0.762700	0.299000
C611	C61	0.939600	0.826600	0.299000
H321	H32	0.899400	0.848300	0.332200
C621	C62	0.868800	0.729100	0.351200
C631	C63	0.050000	0.801400	0.636200
C641	C64	0.160500	0.796400	0.662000
H331	H33	0.195000	0.821600	0.700500
C651	C65	0.216400	0.749700	0.625000
H341	H34	0.290300	0.743200	0.639800
C661	C66	0.161800	0.713300	0.566300
H351	H35	0.200400	0.683300	0.542500
C671	C67	0.050900	0.721200	0.543100
H361	H36	0.015000	0.696900	0.504400
C681	C68	0.995600	0.766500	0.579600
N101	N10	0.972000	0.844600	0.659400
N111	N11	0.880800	0.832300	0.617300
N121	N12	0.887100	0.786400	0.569000
O191	O19	0.764700	0.931700	0.507500
O201	O20	0.690000	0.841780	0.487200
O211	O21	0.884100	0.045900	0.280900
O221	O22	0.764300	0.043900	0.176100
O231	O23	0.835400	0.759900	0.405200
O241	O24	0.851100	0.672880	0.337700
Co51	Co5	0.236350	0.615740	0.106820
C691	C69	0.213200	0.596400	0.876300
C701	C70	0.153800	0.636400	0.825100
H371	H37	0.122100	0.671500	0.843500
C711	C71	0.142100	0.623800	0.747000
H381	H38	0.102900	0.650600	0.712800
C721	C72	0.188400	0.571700	0.719500
H391	H39	0.178100	0.562800	0.667000
C731	C73	0.250700	0.532000	0.769700
C741	C74	0.263400	0.545200	0.848400
H401	H40	0.305700	0.519600	0.882300
C751	C75	0.224000	0.608900	0.961500
C761	C76	0.304300	0.475800	0.740200
C771	C77	0.438500	0.737300	0.799000
C781	C78	0.439600	0.673400	0.799000
H411	H41	0.399400	0.651700	0.832200
C791	C79	0.368800	0.770900	0.851200
C801	C80	0.550000	0.698600	0.136200
C811	C81	0.660500	0.703600	0.162000
H421	H42	0.695000	0.678400	0.200500
C821	C82	0.716400	0.750300	0.125000
H431	H43	0.790300	0.756800	0.139800
C831	C83	0.661800	0.786700	0.066300
H441	H44	0.700400	0.816700	0.042500
C841	C84	0.550900	0.778800	0.043100
H451	H45	0.515000	0.803100	0.004400
C851	C85	0.495600	0.733500	0.079600
N131	N13	0.472000	0.655400	0.159400
N141	N14	0.380800	0.667700	0.117300
N151	N15	0.387100	0.713600	0.069000
O251	O25	0.264700	0.568300	0.007500
O261	O26	0.190000	0.658220	0.987200
O271	O27	0.384100	0.454100	0.780900
O281	O28	0.264300	0.456100	0.676100
O291	O29	0.335400	0.740100	0.905200
O301	O30	0.351100	0.827120	0.837700
Co61	Co6	0.736350	0.115740	0.106820
C861	C86	0.713200	0.096400	0.876300
C871	C87	0.653800	0.136400	0.825100
H461	H46	0.622100	0.171500	0.843500
C881	C88	0.642100	0.123800	0.747000
H471	H47	0.602900	0.150600	0.712800
C891	C89	0.688400	0.071700	0.719500
H481	H48	0.678100	0.062800	0.667000
C901	C90	0.750700	0.032000	0.769700
C911	C91	0.763400	0.045200	0.848400
H491	H49	0.805700	0.019600	0.882300
C921	C92	0.724000	0.108900	0.961500
C931	C93	0.804300	0.975800	0.740200
C941	C94	0.938500	0.237300	0.799000
C951	C95	0.939600	0.173400	0.799000
H501	H50	0.899400	0.151700	0.832200
C961	C96	0.868800	0.270900	0.851200
C971	C97	0.050000	0.198600	0.136200
C981	C98	0.160500	0.203600	0.162000
H511	H51	0.195000	0.178400	0.200500
C991	C99	0.216400	0.250300	0.125000
H521	H52	0.290300	0.256800	0.139800
C1001	C100	0.161800	0.286700	0.066300
H531	H53	0.200400	0.316700	0.042500
C1011	C101	0.050900	0.278800	0.043100
H541	H54	0.015000	0.303100	0.004400
C1021	C102	0.995600	0.233500	0.079600
N161	N16	0.972000	0.155400	0.159400
N171	N17	0.880800	0.167700	0.117300
N181	N18	0.887100	0.213600	0.069000
O311	O31	0.764700	0.068300	0.007500
O321	O32	0.690000	0.158220	0.987200
O331	O33	0.884100	0.954100	0.780900
O341	O34	0.764300	0.956100	0.676100
O351	O35	0.835400	0.240100	0.905200
O361	O36	0.851100	0.327120	0.837700
Co71	Co7	0.763650	0.615740	0.393180
C1031	C103	0.786800	0.596400	0.623700
C1041	C104	0.846200	0.636400	0.674900
H551	H55	0.877900	0.671500	0.656500
C1051	C105	0.857900	0.623800	0.753000
H561	H56	0.897100	0.650600	0.787200
C1061	C106	0.811600	0.571700	0.780500
H571	H57	0.821900	0.562800	0.833000
C1071	C107	0.749300	0.532000	0.730300
C1081	C108	0.736600	0.545200	0.651600
H581	H58	0.694300	0.519600	0.617700
C1091	C109	0.776000	0.608900	0.538500
C1101	C110	0.695700	0.475800	0.759800
C1111	C111	0.561500	0.737300	0.701000
C1121	C112	0.560400	0.673400	0.701000
H591	H59	0.600600	0.651700	0.667800
C1131	C113	0.631200	0.770900	0.648800
C1141	C114	0.450000	0.698600	0.363800
C1151	C115	0.339500	0.703600	0.338000
H601	H60	0.305000	0.678400	0.299500
C1161	C116	0.283600	0.750300	0.375000
H611	H61	0.209700	0.756800	0.360200
C1171	C117	0.338200	0.786700	0.433700
H621	H62	0.299600	0.816700	0.457500
C1181	C118	0.449100	0.778800	0.456900
H631	H63	0.485000	0.803100	0.495600
C1191	C119	0.504400	0.733500	0.420400
N191	N19	0.528000	0.655400	0.340600
N201	N20	0.619200	0.667700	0.382700
N211	N21	0.612900	0.713600	0.431000
O371	O37	0.735300	0.568300	0.492500
O381	O38	0.810000	0.658220	0.512800
O391	O39	0.615900	0.454100	0.719100
O401	O40	0.735700	0.456100	0.823900
O411	O41	0.664600	0.740100	0.594800
O421	O42	0.648900	0.827120	0.662300
Co81	Co8	0.263650	0.115740	0.393180
C1201	C120	0.286800	0.096400	0.623700
C1211	C121	0.346200	0.136400	0.674900
H641	H64	0.377900	0.171500	0.656500
C1221	C122	0.357900	0.123800	0.753000
H651	H65	0.397100	0.150600	0.787200
C1231	C123	0.311600	0.071700	0.780500
H661	H66	0.321900	0.062800	0.833000
C1241	C124	0.249300	0.032000	0.730300
C1251	C125	0.236600	0.045200	0.651600
H671	H67	0.194300	0.019600	0.617700
C1261	C126	0.276000	0.108900	0.538500
C1271	C127	0.195700	0.975800	0.759800
C1281	C128	0.061500	0.237300	0.701000
C1291	C129	0.060400	0.173400	0.701000
H681	H68	0.100600	0.151700	0.667800
C1301	C130	0.131200	0.270900	0.648800
C1311	C131	0.950000	0.198600	0.363800
C1321	C132	0.839500	0.203600	0.338000
H691	H69	0.805000	0.178400	0.299500
C1331	C133	0.783600	0.250300	0.375000
H701	H70	0.709700	0.256800	0.360200
C1341	C134	0.838200	0.286700	0.433700
H711	H71	0.799600	0.316700	0.457500
C1351	C135	0.949100	0.278800	0.456900
H721	H72	0.985000	0.303100	0.495600
C1361	C136	0.004400	0.233500	0.420400
N221	N22	0.028000	0.155400	0.340600
N231	N23	0.119200	0.167700	0.382700
N241	N24	0.112900	0.213600	0.431000
O431	O43	0.235300	0.068300	0.492500
O441	O44	0.310000	0.158220	0.512800
O451	O45	0.115900	0.954100	0.719100
O461	O46	0.235700	0.956100	0.823900
O471	O47	0.164600	0.240100	0.594800
O481	O48	0.148900	0.327120	0.662300
Co91	Co9	0.750000	0.250000	0.000000
Co101	Co10	0.250000	0.250000	0.500000
Co111	Co11	0.250000	0.750000	0.000000
Co121	Co12	0.750000	0.750000	0.500000
Co131	Co13	0.500000	0.402290	0.750000
Co141	Co14	0.000000	0.902290	0.750000
Co151	Co15	0.500000	0.597710	0.250000
Co161	Co16	0.000000	0.097710	0.250000
C1371	C137	0.500000	0.230800	0.250000
H731	H73	0.500000	0.188000	0.250000
C1381	C138	0.500000	0.357800	0.250000
H741	H74	0.500000	0.400700	0.250000
C1391	C139	0.000000	0.730800	0.250000
H751	H75	0.000000	0.688000	0.250000
C1401	C140	0.000000	0.857800	0.250000
H761	H76	0.000000	0.900700	0.250000
C1411	C141	0.500000	0.769200	0.750000
H771	H77	0.500000	0.812000	0.750000
C1421	C142	0.500000	0.642200	0.750000
H781	H78	0.500000	0.599300	0.750000
C1431	C143	0.000000	0.269200	0.750000
H791	H79	0.000000	0.312000	0.750000
C1441	C144	0.000000	0.142200	0.750000
H801	H80	0.000000	0.099300	0.750000
