data_YOLGUB_clean_PM
_symmetry_space_group_name_H-M	'P1'
_cell_length_a	12.219000
_cell_length_b	16.015000
_cell_length_c	22.014000
_cell_angle_alpha	90.000000
_cell_angle_beta	99.223000
_cell_angle_gamma	90.000000
_symmetry_Int_Tables_number 1

loop_
_symmetry_equiv_pos_as_xyz
'x,y,z'

loop_
_atom_site_label
_atom_site_type_symbol
_atom_site_fract_x
_atom_site_fract_y
_atom_site_fract_z
Cu11	Cu1	0.258000	0.669000	0.108890
Cu21	Cu2	0.961600	0.663500	0.247340
Cu31	Cu3	0.611200	0.508100	0.174760
Cu41	Cu4	0.586100	0.198000	0.196890
Cu51	Cu5	0.080100	0.598000	0.893410
Cu61	Cu6	0.303300	0.979600	0.123490
Cu71	Cu7	0.605300	0.206400	0.430220
Cu81	Cu8	0.024500	0.799200	0.453960
Cu91	Cu9	0.665900	0.908500	0.501480
N11	N1	0.149000	0.609800	0.980800
C11	C1	0.190000	0.632000	0.029100
C21	C2	0.304500	0.861400	0.114800
C31	C3	0.295000	0.791600	0.109700
N21	N2	0.151900	0.666900	0.170800
C41	C4	0.082000	0.662900	0.199100
N31	N3	0.996000	0.756000	0.371500
C51	C5	0.977000	0.721000	0.324600
C61	C6	0.397000	0.607600	0.138200
C71	C7	0.474000	0.571100	0.149100
C81	C8	0.829000	0.603000	0.222800
C91	C9	0.749000	0.569200	0.205100
C101	C10	0.597000	0.389300	0.171400
C111	C11	0.582000	0.318000	0.174000
N41	N4	0.736400	0.160400	0.174200
C121	C12	0.187000	0.635500	0.845600
N51	N5	0.156000	0.030100	0.118300
C131	C13	0.933000	0.556000	0.884900
N61	N6	0.471500	0.116800	0.159600
C141	C14	0.409000	0.063900	0.147100
N71	N7	0.598500	0.195700	0.289600
C151	C15	0.597000	0.203000	0.343200
N81	N8	0.748400	0.256300	0.472700
C161	C16	0.170000	0.777900	0.499200
N91	N9	0.813900	0.869800	0.492600
C171	C17	0.898000	0.847000	0.479500
N101	N10	0.486300	0.275600	0.460100
C181	C18	0.575000	0.823700	0.524700
N111	N11	0.606900	0.088700	0.462500
C191	C19	0.631000	0.021000	0.479500
Cu101	Cu10	0.742000	0.169000	0.891110
Cu111	Cu11	0.038400	0.163500	0.752660
Cu121	Cu12	0.388800	0.008100	0.825240
Cu131	Cu13	0.413900	0.698000	0.803110
Cu141	Cu14	0.919900	0.098000	0.106590
Cu151	Cu15	0.696700	0.479600	0.876510
Cu161	Cu16	0.394700	0.706400	0.569780
Cu171	Cu17	0.975500	0.299200	0.546040
Cu181	Cu18	0.334100	0.408500	0.498520
N121	N12	0.851000	0.109800	0.019200
C201	C20	0.810000	0.132000	0.970900
C211	C21	0.695500	0.361400	0.885200
C221	C22	0.705000	0.291600	0.890300
N131	N13	0.848100	0.166900	0.829200
C231	C23	0.918000	0.162900	0.800900
N141	N14	0.004000	0.256000	0.628500
C241	C24	0.023000	0.221000	0.675400
C251	C25	0.603000	0.107600	0.861800
C261	C26	0.526000	0.071100	0.850900
C271	C27	0.171000	0.103000	0.777200
C281	C28	0.251000	0.069200	0.794900
C291	C29	0.403000	0.889300	0.828600
C301	C30	0.418000	0.818000	0.826000
N151	N15	0.263600	0.660400	0.825800
C311	C31	0.813000	0.135500	0.154400
N161	N16	0.844000	0.530100	0.881700
C321	C32	0.067000	0.056000	0.115100
N171	N17	0.528500	0.616800	0.840400
C331	C33	0.591000	0.563900	0.852900
N181	N18	0.401500	0.695700	0.710400
C341	C34	0.403000	0.703000	0.656800
N191	N19	0.251600	0.756300	0.527300
C351	C35	0.830000	0.277900	0.500800
N201	N20	0.186100	0.369800	0.507400
C361	C36	0.102000	0.347000	0.520500
N211	N21	0.513700	0.775600	0.539900
C371	C37	0.425000	0.323700	0.475300
N221	N22	0.393100	0.588700	0.537500
C381	C38	0.369000	0.521000	0.520500
