data_YOMBAE_charged_PM
_symmetry_space_group_name_H-M	'P1'
_cell_length_a	11.168800
_cell_length_b	11.168800
_cell_length_c	24.901400
_cell_angle_alpha	82.731500
_cell_angle_beta	77.913600
_cell_angle_gamma	104.542000
_symmetry_Int_Tables_number 1

loop_
_symmetry_equiv_pos_as_xyz
'x,y,z'

loop_
_atom_site_label
_atom_site_type_symbol
_atom_site_fract_x
_atom_site_fract_y
_atom_site_fract_z
Cu11	Cu1	0.500000	0.500000	0.000000
Cu21	Cu2	0.000000	0.500000	0.500000
Mo11	Mo1	0.586640	0.577050	0.827690
Mo21	Mo2	0.094760	0.662520	0.708960
Mo31	Mo3	0.904740	0.414330	0.672310
Mo41	Mo4	0.871480	0.803720	0.791040
Mo51	Mo5	0.413360	0.422950	0.172310
Mo61	Mo6	0.905240	0.337480	0.291040
Mo71	Mo7	0.095260	0.585670	0.327690
Mo81	Mo8	0.128520	0.196280	0.208960
Mo91	Mo9	0.602470	0.352470	0.750000
Mo101	Mo10	0.397530	0.647530	0.250000
P11	P1	0.783400	0.663190	0.691010
P21	P2	0.854200	0.474410	0.808990
P31	P3	0.216600	0.336810	0.308990
P41	P4	0.145800	0.525590	0.191010
H11	H1	0.703300	0.711400	0.630500
H21	H2	0.431600	0.663100	0.079100
H31	H3	0.416500	0.858300	0.080800
H41	H4	0.603500	0.957000	0.920500
H51	H5	0.619700	0.760000	0.923100
H61	H6	0.234400	0.388600	0.072800
H71	H7	0.030400	0.385600	0.074400
H81	H8	0.151500	0.593700	0.921400
H91	H9	0.356200	0.589000	0.922200
H101	H10	0.841900	0.333800	0.869500
H111	H11	0.242200	0.510700	0.420900
H121	H12	0.439100	0.497300	0.419200
H131	H13	0.377500	0.524000	0.579500
H141	H14	0.183100	0.542800	0.576900
H151	H15	0.961400	0.307200	0.427200
H161	H16	0.960000	0.104800	0.425600
H171	H17	0.015100	0.072900	0.578600
H181	H18	0.011200	0.278400	0.577800
H191	H19	0.296700	0.288600	0.369500
H201	H20	0.568400	0.336900	0.920900
H211	H21	0.583500	0.141700	0.919200
H221	H22	0.396500	0.043000	0.079500
H231	H23	0.380300	0.240000	0.076900
H241	H24	0.765600	0.611400	0.927200
H251	H25	0.969600	0.614400	0.925600
H261	H26	0.848500	0.406300	0.078600
H271	H27	0.643800	0.411000	0.077800
H281	H28	0.158100	0.666200	0.130500
H291	H29	0.757800	0.489300	0.579100
H301	H30	0.560900	0.502700	0.580800
H311	H31	0.622500	0.476000	0.420500
H321	H32	0.816900	0.457200	0.423100
H331	H33	0.038600	0.692800	0.572800
H341	H34	0.040000	0.895200	0.574400
H351	H35	0.984900	0.927100	0.421400
H361	H36	0.988800	0.721600	0.422200
C11	C1	0.466400	0.723100	0.046300
C21	C2	0.457000	0.840600	0.047400
C31	C3	0.505400	0.936400	0.000600
C41	C4	0.567100	0.898600	0.953700
C51	C5	0.575400	0.779500	0.955300
C61	C6	0.217900	0.430100	0.041600
C71	C7	0.095100	0.430500	0.043000
C81	C8	0.063500	0.495000	0.999900
C91	C9	0.166100	0.552200	0.953100
C101	C10	0.289700	0.547900	0.953400
C111	C11	0.269400	0.512700	0.453700
C121	C12	0.388000	0.504400	0.452600
C131	C13	0.437000	0.506000	0.499400
C141	C14	0.352300	0.520800	0.546300
C151	C15	0.234800	0.530700	0.544700
C161	C16	0.971700	0.259500	0.458400
C171	C17	0.973500	0.138100	0.457000
C181	C18	0.994900	0.063400	0.500100
C191	C19	0.005300	0.119200	0.546900
C201	C20	0.001300	0.243100	0.546600
C211	C21	0.533600	0.276900	0.953700
C221	C22	0.543000	0.159400	0.952600
C231	C23	0.494600	0.063600	0.999400
C241	C24	0.432900	0.101400	0.046300
C251	C25	0.424600	0.220500	0.044700
C261	C26	0.782100	0.569900	0.958400
C271	C27	0.904900	0.569500	0.957000
C281	C28	0.936500	0.505000	0.000100
C291	C29	0.833900	0.447800	0.046900
C301	C30	0.710300	0.452100	0.046600
C311	C31	0.730600	0.487300	0.546300
C321	C32	0.612000	0.495600	0.547400
C331	C33	0.563000	0.494000	0.500600
C341	C34	0.647700	0.479200	0.453700
C351	C35	0.765200	0.469300	0.455300
C361	C36	0.028300	0.740500	0.541600
C371	C37	0.026500	0.861900	0.543000
C381	C38	0.005100	0.936600	0.499900
C391	C39	0.994700	0.880800	0.453100
C401	C40	0.998700	0.756900	0.453400
N11	N1	0.522900	0.688200	0.000900
N21	N2	0.315600	0.486400	0.997200
N31	N3	0.189100	0.523800	0.499100
N41	N4	0.983600	0.312800	0.502800
N51	N5	0.477100	0.311800	0.999100
N61	N6	0.684400	0.513600	0.002800
N71	N7	0.810900	0.476200	0.500900
N81	N8	0.016400	0.687200	0.497200
O11	O1	0.662900	0.575300	0.732800
O21	O2	0.563200	0.405000	0.819800
O31	O3	0.895700	0.605200	0.686100
O41	O4	0.686100	0.753700	0.811400
O51	O5	0.558500	0.550000	0.899700
O61	O6	0.449500	0.602100	0.815800
O71	O7	0.469700	0.354000	0.726500
O81	O8	0.821300	0.789500	0.707600
O91	O9	0.152300	0.758800	0.644900
O101	O10	0.231800	0.670100	0.729700
O111	O11	0.760500	0.677700	0.631200
O121	O12	0.808100	0.395700	0.767200
O131	O13	0.724800	0.383000	0.680200
O141	O14	0.791300	0.581800	0.813900
O151	O15	0.065100	0.497500	0.688600
O161	O16	0.949700	0.458200	0.600300
O171	O17	0.917900	0.265300	0.684200
O181	O18	0.580500	0.196200	0.773500
O191	O19	0.997100	0.528900	0.792400
O201	O20	0.903700	0.797200	0.855100
O211	O21	0.899800	0.961500	0.770300
O221	O22	0.808900	0.391700	0.868800
O231	O23	0.337100	0.424700	0.267200
O241	O24	0.436800	0.595000	0.180200
O251	O25	0.104300	0.394800	0.313900
O261	O26	0.313900	0.246300	0.188600
O271	O27	0.441500	0.450000	0.100300
O281	O28	0.550500	0.397900	0.184200
O291	O29	0.530300	0.646000	0.273500
O301	O30	0.178700	0.210500	0.292400
O311	O31	0.847700	0.241200	0.355100
O321	O32	0.768200	0.329900	0.270300
O331	O33	0.239500	0.322300	0.368800
O341	O34	0.191900	0.604300	0.232800
O351	O35	0.275200	0.617000	0.319800
O361	O36	0.208700	0.418200	0.186100
O371	O37	0.934900	0.502500	0.311400
O381	O38	0.050300	0.541800	0.399700
O391	O39	0.082100	0.734700	0.315800
O401	O40	0.419500	0.803800	0.226500
O411	O41	0.002900	0.471100	0.207600
O421	O42	0.096300	0.202800	0.144900
O431	O43	0.100200	0.038500	0.229700
O441	O44	0.191100	0.608300	0.131200
O451	O45	0.021400	0.771400	0.750000
O461	O46	0.978600	0.228600	0.250000
