data_YOMNIZ_clean_PM
_symmetry_space_group_name_H-M	'P1'
_cell_length_a	12.856300
_cell_length_b	12.856300
_cell_length_c	12.856300
_cell_angle_alpha	90.000000
_cell_angle_beta	90.000000
_cell_angle_gamma	90.000000
_symmetry_Int_Tables_number 1

loop_
_symmetry_equiv_pos_as_xyz
'x,y,z'

loop_
_atom_site_label
_atom_site_type_symbol
_atom_site_fract_x
_atom_site_fract_y
_atom_site_fract_z
N11	N1	0.724200	0.481200	0.033500
N21	N2	0.641900	0.439200	0.044600
N31	N3	0.806900	0.515900	0.027000
N41	N4	0.775800	0.518800	0.533500
N51	N5	0.858100	0.560800	0.544600
N61	N6	0.693100	0.484100	0.527000
N71	N7	0.275800	0.981200	0.466500
N81	N8	0.358100	0.939200	0.455400
N91	N9	0.193100	0.015900	0.473000
N101	N10	0.224200	0.018800	0.966500
N111	N11	0.141900	0.060800	0.955400
N121	N12	0.306900	0.984100	0.973000
N131	N13	0.033500	0.724200	0.481200
N141	N14	0.044600	0.641900	0.439200
N151	N15	0.027000	0.806900	0.515900
N161	N16	0.533500	0.775800	0.518800
N171	N17	0.544600	0.858100	0.560800
N181	N18	0.527000	0.693100	0.484100
N191	N19	0.466500	0.275800	0.981200
N201	N20	0.455400	0.358100	0.939200
N211	N21	0.473000	0.193100	0.015900
N221	N22	0.966500	0.224200	0.018800
N231	N23	0.955400	0.141900	0.060800
N241	N24	0.973000	0.306900	0.984100
N251	N25	0.481200	0.033500	0.724200
N261	N26	0.439200	0.044600	0.641900
N271	N27	0.515900	0.027000	0.806900
N281	N28	0.518800	0.533500	0.775800
N291	N29	0.560800	0.544600	0.858100
N301	N30	0.484100	0.527000	0.693100
N311	N31	0.981200	0.466500	0.275800
N321	N32	0.939200	0.455400	0.358100
N331	N33	0.015900	0.473000	0.193100
N341	N34	0.018800	0.966500	0.224200
N351	N35	0.060800	0.955400	0.141900
N361	N36	0.984100	0.973000	0.306900
N371	N37	0.275800	0.518800	0.966500
N381	N38	0.358100	0.560800	0.955400
N391	N39	0.193100	0.484100	0.973000
N401	N40	0.224200	0.481200	0.466500
N411	N41	0.141900	0.439200	0.455400
N421	N42	0.306900	0.515900	0.473000
N431	N43	0.724200	0.018800	0.533500
N441	N44	0.641900	0.060800	0.544600
N451	N45	0.806900	0.984100	0.527000
N461	N46	0.775800	0.981200	0.033500
N471	N47	0.858100	0.939200	0.044600
N481	N48	0.693100	0.015900	0.027000
N491	N49	0.966500	0.275800	0.518800
N501	N50	0.955400	0.358100	0.560800
N511	N51	0.973000	0.193100	0.484100
N521	N52	0.466500	0.224200	0.481200
N531	N53	0.455400	0.141900	0.439200
N541	N54	0.473000	0.306900	0.515900
N551	N55	0.533500	0.724200	0.018800
N561	N56	0.544600	0.641900	0.060800
N571	N57	0.527000	0.806900	0.984100
N581	N58	0.033500	0.775800	0.981200
N591	N59	0.044600	0.858100	0.939200
N601	N60	0.027000	0.693100	0.015900
N611	N61	0.518800	0.966500	0.275800
N621	N62	0.560800	0.955400	0.358100
N631	N63	0.484100	0.973000	0.193100
N641	N64	0.481200	0.466500	0.224200
N651	N65	0.439200	0.455400	0.141900
N661	N66	0.515900	0.473000	0.306900
N671	N67	0.018800	0.533500	0.724200
N681	N68	0.060800	0.544600	0.641900
N691	N69	0.984100	0.527000	0.806900
N701	N70	0.981200	0.033500	0.775800
N711	N71	0.939200	0.044600	0.858100
N721	N72	0.015900	0.027000	0.693100
Ru11	Ru1	0.500000	0.500000	0.000000
Ru21	Ru2	0.000000	0.500000	0.500000
Ru31	Ru3	0.500000	0.000000	0.500000
Ru41	Ru4	0.000000	0.000000	0.000000
Na11	Na1	0.000000	0.500000	0.000000
Na21	Na2	0.500000	0.500000	0.500000
Na31	Na3	0.000000	0.000000	0.500000
Na41	Na4	0.500000	0.000000	0.000000
