data_YOMVIG_clean_PM
_symmetry_space_group_name_H-M	'P1'
_cell_length_a	14.718000
_cell_length_b	13.063000
_cell_length_c	15.229000
_cell_angle_alpha	90.000000
_cell_angle_beta	110.920000
_cell_angle_gamma	90.000000
_symmetry_Int_Tables_number 1

loop_
_symmetry_equiv_pos_as_xyz
'x,y,z'

loop_
_atom_site_label
_atom_site_type_symbol
_atom_site_fract_x
_atom_site_fract_y
_atom_site_fract_z
Al11	Al1	0.375260	0.190880	0.123660
Al21	Al2	0.583410	0.894160	0.163130
Co11	Co1	0.083410	0.394160	0.163130
Al31	Al3	0.250800	0.872150	0.918730
Co21	Co2	0.249200	0.627850	0.081270
P11	P1	0.253600	0.112020	0.921220
P21	P2	0.591300	0.133190	0.170510
P31	P3	0.376180	0.814180	0.128160
O11	O1	0.562900	0.025500	0.136800
O21	O2	0.221200	0.006200	0.888700
O31	O3	0.501100	0.200900	0.140400
O41	O4	0.292500	0.857100	0.046600
O51	O5	0.660000	0.176000	0.127000
O61	O6	0.326800	0.151600	0.879800
O71	O7	0.300400	0.113900	0.027600
O81	O8	0.473600	0.827300	0.113800
O91	O9	0.362100	0.699400	0.136600
O101	O10	0.640700	0.131000	0.277000
O111	O11	0.376500	0.870800	0.214800
O121	O12	0.165000	0.179400	0.890800
Al41	Al4	0.875260	0.690880	0.123660
Al51	Al5	0.750800	0.372150	0.918730
Co31	Co3	0.749200	0.127850	0.081270
P41	P4	0.753600	0.612020	0.921220
P51	P5	0.091300	0.633190	0.170510
P61	P6	0.876180	0.314180	0.128160
O131	O13	0.062900	0.525500	0.136800
O141	O14	0.721200	0.506200	0.888700
O151	O15	0.001100	0.700900	0.140400
O161	O16	0.792500	0.357100	0.046600
O171	O17	0.160000	0.676000	0.127000
O181	O18	0.826800	0.651600	0.879800
O191	O19	0.800400	0.613900	0.027600
O201	O20	0.973600	0.327300	0.113800
O211	O21	0.862100	0.199400	0.136600
O221	O22	0.140700	0.631000	0.277000
O231	O23	0.876500	0.370800	0.214800
O241	O24	0.665000	0.679400	0.890800
Al61	Al6	0.624740	0.190880	0.376340
Al71	Al7	0.416590	0.894160	0.336870
Co41	Co4	0.916590	0.394160	0.336870
Al81	Al8	0.749200	0.872150	0.581270
Co51	Co5	0.750800	0.627850	0.418730
P71	P7	0.746400	0.112020	0.578780
P81	P8	0.408700	0.133190	0.329490
P91	P9	0.623820	0.814180	0.371840
O251	O25	0.437100	0.025500	0.363200
O261	O26	0.778800	0.006200	0.611300
O271	O27	0.498900	0.200900	0.359600
O281	O28	0.707500	0.857100	0.453400
O291	O29	0.340000	0.176000	0.373000
O301	O30	0.673200	0.151600	0.620200
O311	O31	0.699600	0.113900	0.472400
O321	O32	0.526400	0.827300	0.386200
O331	O33	0.637900	0.699400	0.363400
O341	O34	0.359300	0.131000	0.223000
O351	O35	0.623500	0.870800	0.285200
O361	O36	0.835000	0.179400	0.609200
Al91	Al9	0.124740	0.690880	0.376340
Al101	Al10	0.249200	0.372150	0.581270
Co61	Co6	0.250800	0.127850	0.418730
P101	P10	0.246400	0.612020	0.578780
P111	P11	0.908700	0.633190	0.329490
P121	P12	0.123820	0.314180	0.371840
O371	O37	0.937100	0.525500	0.363200
O381	O38	0.278800	0.506200	0.611300
O391	O39	0.998900	0.700900	0.359600
O401	O40	0.207500	0.357100	0.453400
O411	O41	0.840000	0.676000	0.373000
O421	O42	0.173200	0.651600	0.620200
O431	O43	0.199600	0.613900	0.472400
O441	O44	0.026400	0.327300	0.386200
O451	O45	0.137900	0.199400	0.363400
O461	O46	0.859300	0.631000	0.223000
O471	O47	0.123500	0.370800	0.285200
O481	O48	0.335000	0.679400	0.609200
Al111	Al11	0.624740	0.809120	0.876340
Al121	Al12	0.416590	0.105840	0.836870
Co71	Co7	0.916590	0.605840	0.836870
P131	P13	0.746400	0.887980	0.078780
P141	P14	0.408700	0.866810	0.829490
P151	P15	0.623820	0.185820	0.871840
O491	O49	0.437100	0.974500	0.863200
O501	O50	0.778800	0.993800	0.111300
O511	O51	0.498900	0.799100	0.859600
O521	O52	0.707500	0.142900	0.953400
O531	O53	0.340000	0.824000	0.873000
O541	O54	0.673200	0.848400	0.120200
O551	O55	0.699600	0.886100	0.972400
O561	O56	0.526400	0.172700	0.886200
O571	O57	0.637900	0.300600	0.863400
O581	O58	0.359300	0.869000	0.723000
O591	O59	0.623500	0.129200	0.785200
O601	O60	0.835000	0.820600	0.109200
Al131	Al13	0.124740	0.309120	0.876340
P161	P16	0.246400	0.387980	0.078780
P171	P17	0.908700	0.366810	0.829490
P181	P18	0.123820	0.685820	0.871840
O611	O61	0.937100	0.474500	0.863200
O621	O62	0.278800	0.493800	0.111300
O631	O63	0.998900	0.299100	0.859600
O641	O64	0.207500	0.642900	0.953400
O651	O65	0.840000	0.324000	0.873000
O661	O66	0.173200	0.348400	0.120200
O671	O67	0.199600	0.386100	0.972400
O681	O68	0.026400	0.672700	0.886200
O691	O69	0.137900	0.800600	0.863400
O701	O70	0.859300	0.369000	0.723000
O711	O71	0.123500	0.629200	0.785200
O721	O72	0.335000	0.320600	0.109200
Al141	Al14	0.375260	0.809120	0.623660
Al151	Al15	0.583410	0.105840	0.663130
Co81	Co8	0.083410	0.605840	0.663130
P191	P19	0.253600	0.887980	0.421220
P201	P20	0.591300	0.866810	0.670510
P211	P21	0.376180	0.185820	0.628160
O731	O73	0.562900	0.974500	0.636800
O741	O74	0.221200	0.993800	0.388700
O751	O75	0.501100	0.799100	0.640400
O761	O76	0.292500	0.142900	0.546600
O771	O77	0.660000	0.824000	0.627000
O781	O78	0.326800	0.848400	0.379800
O791	O79	0.300400	0.886100	0.527600
O801	O80	0.473600	0.172700	0.613800
O811	O81	0.362100	0.300600	0.636600
O821	O82	0.640700	0.869000	0.777000
O831	O83	0.376500	0.129200	0.714800
O841	O84	0.165000	0.820600	0.390800
Al161	Al16	0.875260	0.309120	0.623660
P221	P22	0.753600	0.387980	0.421220
P231	P23	0.091300	0.366810	0.670510
P241	P24	0.876180	0.685820	0.628160
O851	O85	0.062900	0.474500	0.636800
O861	O86	0.721200	0.493800	0.388700
O871	O87	0.001100	0.299100	0.640400
O881	O88	0.792500	0.642900	0.546600
O891	O89	0.160000	0.324000	0.627000
O901	O90	0.826800	0.348400	0.379800
O911	O91	0.800400	0.386100	0.527600
O921	O92	0.973600	0.672700	0.613800
O931	O93	0.862100	0.800600	0.636600
O941	O94	0.140700	0.369000	0.777000
O951	O95	0.876500	0.629200	0.714800
O961	O96	0.665000	0.320600	0.390800
