data_YOMZIL_clean_PM
_symmetry_space_group_name_H-M	'P1'
_cell_length_a	16.289300
_cell_length_b	16.799100
_cell_length_c	17.482900
_cell_angle_alpha	86.419000
_cell_angle_beta	87.725000
_cell_angle_gamma	66.905000
_symmetry_Int_Tables_number 1

loop_
_symmetry_equiv_pos_as_xyz
'x,y,z'

loop_
_atom_site_label
_atom_site_type_symbol
_atom_site_fract_x
_atom_site_fract_y
_atom_site_fract_z
Ag11	Ag1	0.779040	0.071060	0.149220
Ag21	Ag2	0.603570	0.298850	0.201860
Ag31	Ag3	0.731490	0.099900	0.390540
S11	S1	0.720350	0.225550	0.102600
S21	S2	0.846580	0.042020	0.278790
S31	S3	0.599860	0.192710	0.306200
P11	P1	0.773540	0.121010	0.518750
P21	P2	0.712440	0.954070	0.420980
P31	P3	0.818420	0.953920	0.061260
P41	P4	0.499320	0.448230	0.194260
C11	C1	0.693690	0.103070	0.586700
C21	C2	0.603580	0.150000	0.572680
H11	H1	0.586300	0.190400	0.529900
C31	C3	0.538530	0.138420	0.620560
H21	H2	0.477200	0.171600	0.611000
C41	C4	0.563020	0.078890	0.681720
H31	H3	0.518500	0.070400	0.713900
C51	C5	0.652350	0.031380	0.696450
H41	H4	0.669000	0.990500	0.738900
C61	C6	0.718210	0.043250	0.649030
H51	H5	0.779500	0.010600	0.659300
C71	C7	0.779620	0.219320	0.554170
C81	C8	0.776090	0.287030	0.503350
H61	H6	0.770900	0.282600	0.450000
C91	C9	0.780200	0.361410	0.530100
H71	H7	0.777200	0.407900	0.495000
C101	C10	0.788480	0.368170	0.607140
H81	H8	0.791500	0.419200	0.625100
C111	C11	0.792410	0.301410	0.657970
H91	H9	0.798200	0.306100	0.711200
C121	C12	0.787900	0.227050	0.632010
H101	H10	0.790500	0.181000	0.667500
C131	C13	0.881430	0.036370	0.546310
H111	H11	0.897400	0.047300	0.597600
H121	H12	0.876500	0.979300	0.549600
C141	C14	0.955020	0.034220	0.488290
H131	H13	0.939700	0.021900	0.437300
H141	H14	0.958800	0.091700	0.484000
C151	C15	0.692010	0.905360	0.336700
C161	C16	0.660900	0.957980	0.270390
H151	H15	0.652300	0.017300	0.269500
C171	C17	0.642390	0.924450	0.205650
H161	H16	0.621100	0.960800	0.160900
C181	C18	0.654930	0.838300	0.206500
H171	H17	0.642300	0.815300	0.162200
C191	C19	0.685780	0.785360	0.271480
H181	H18	0.694400	0.726000	0.271900
C201	C20	0.704320	0.818580	0.336310
H191	H19	0.725600	0.781700	0.380800
C211	C21	0.815800	0.871890	0.458940
C221	C22	0.823050	0.835460	0.533450
H201	H20	0.771100	0.848500	0.565000
C231	C23	0.905160	0.780400	0.561990
H211	H21	0.909200	0.756100	0.612900
C241	C24	0.981450	0.760720	0.516350
H221	H22	0.037800	0.723100	0.536000
C251	C25	0.975320	0.795720	0.442890
H231	H23	0.027600	0.781800	0.411600
C261	C26	0.893470	0.851370	0.413610
H241	H24	0.890200	0.875600	0.362700
C271	C27	0.628550	0.945070	0.490830
H251	H25	0.633100	0.884400	0.494400
H261	H26	0.641800	0.959100	0.541900
C281	C28	0.533510	0.004730	0.469960
H271	H27	0.519400	0.990500	0.419300
H281	H28	0.528400	0.065500	0.466300
C291	C29	0.736810	0.939060	0.001400
C301	C30	0.680760	0.010460	0.958350
H291	H29	0.686500	0.064400	0.960400
C311	C31	0.616690	0.004150	0.912420
H301	H30	0.578600	0.053800	0.883500
C321	C32	0.607650	0.926700	0.908310
H311	H31	0.563400	0.922500	0.876800
C331	C33	0.663600	0.854700	0.950500
H321	H32	0.658100	0.800700	0.947300
C341	C34	0.727650	0.860370	0.997210
H331	H33	0.765300	0.810700	0.026400
C351	C35	0.884970	0.845960	0.101500
C361	C36	0.880450	0.830580	0.179960
H341	H34	0.843300	0.875900	0.210900
C371	C37	0.929400	0.749800	0.213830
H351	H35	0.925600	0.740100	0.267700
C381	C38	0.983490	0.683820	0.169870
H361	H36	0.016700	0.628400	0.193300
C391	C39	0.989600	0.697970	0.091740
H371	H37	0.027200	0.652400	0.061300
C401	C40	0.940880	0.778680	0.057700
H381	H38	0.945600	0.788300	0.003900
C411	C41	0.893640	0.975980	0.989680
H391	H39	0.919000	0.926800	0.955700
H401	H40	0.859600	0.028600	0.957700
C421	C42	0.969250	0.989050	0.029000
H411	H41	0.943600	0.036600	0.064700
H421	H42	0.004500	0.935500	0.059400
C431	C43	0.507850	0.513680	0.269990
C441	C44	0.437950	0.554570	0.320520
H431	H43	0.382800	0.548200	0.316700
C451	C45	0.448500	0.604400	0.376230
H441	H44	0.400200	0.632300	0.410300
C461	C46	0.527200	0.613960	0.382990
H451	H45	0.533300	0.649400	0.420800
C471	C47	0.598400	0.571700	0.334350
H461	H46	0.653600	0.577400	0.339400
C481	C48	0.588960	0.521110	0.278300
H471	H47	0.638100	0.491500	0.245600
C491	C49	0.382500	0.462760	0.192580
C501	C50	0.360840	0.392650	0.213360
H481	H48	0.406100	0.339200	0.230400
C511	C51	0.273200	0.399900	0.209400
H491	H49	0.258600	0.351600	0.224400
C521	C52	0.207400	0.476700	0.184000
H501	H50	0.147800	0.481000	0.180500
C531	C53	0.227870	0.547300	0.163500
H511	H51	0.182300	0.600600	0.146800
C541	C54	0.314860	0.540270	0.167400
H521	H52	0.328900	0.588900	0.152700
C551	C55	0.510450	0.511710	0.108320
H531	H53	0.464800	0.571500	0.110200
H541	H54	0.570000	0.514800	0.107400
C561	C56	0.499370	0.471900	0.035730
H551	H55	0.442100	0.464100	0.038800
H561	H56	0.548200	0.414000	0.031800
C571	C57	0.672530	0.230170	0.012310
C581	C58	0.587820	0.228340	0.004500
C591	C59	0.553500	0.234830	0.931470
H571	H57	0.495100	0.236000	0.926800
C601	C60	0.601800	0.239620	0.865620
C611	C61	0.686200	0.237990	0.874180
H581	H58	0.720800	0.239500	0.829400
C621	C62	0.723100	0.234280	0.945380
C631	C63	0.533790	0.216500	0.072360
H591	H59	0.571700	0.168500	0.106200
H601	H60	0.484200	0.203500	0.054900
H611	H61	0.510100	0.269900	0.100400
C641	C64	0.561200	0.247000	0.787570
H621	H62	0.524500	0.212500	0.788800
H631	H63	0.609000	0.225300	0.749000
H641	H64	0.523900	0.307800	0.774500
C651	C65	0.814300	0.234300	0.949800
H651	H65	0.810100	0.289100	0.969800
H661	H66	0.841900	0.228100	0.898500
H671	H67	0.850700	0.185900	0.984000
C661	C66	0.933460	0.079840	0.260620
C671	C67	0.919180	0.167580	0.264110
C681	C68	0.989570	0.193600	0.248090
H681	H68	0.979400	0.253000	0.251200
C691	C69	0.074240	0.135600	0.227640
C701	C70	0.087140	0.049500	0.224040
H691	H69	0.144500	0.009100	0.209500
C711	C71	0.019740	0.019660	0.240780
C721	C72	0.828490	0.234660	0.282710
H701	H70	0.786700	0.238000	0.242600
H711	H71	0.832400	0.291200	0.285500
H721	H72	0.807200	0.218500	0.332100
C731	C73	0.150000	0.165100	0.210400
H731	H73	0.125600	0.226300	0.192900
H741	H74	0.188900	0.130400	0.170200
H751	H75	0.184500	0.157600	0.256900
C741	C74	0.038570	0.925290	0.236590
H761	H76	0.030900	0.901300	0.287600
H771	H77	0.100000	0.894700	0.218300
H781	H78	0.997100	0.918200	0.201100
C751	C75	0.497360	0.247070	0.355500
C761	C76	0.485040	0.317770	0.400440
C771	C77	0.401610	0.361820	0.433950
H791	H79	0.392900	0.410900	0.462500
C781	C78	0.331300	0.336700	0.427100
C791	C79	0.344980	0.266880	0.382440
H801	H80	0.297000	0.249100	0.376700
C801	C80	0.425410	0.222220	0.346110
C811	C81	0.559560	0.345940	0.412280
H811	H81	0.606300	0.300500	0.442100
H821	H82	0.537000	0.399500	0.440000
H831	H83	0.584300	0.356300	0.362400
C821	C82	0.242000	0.384900	0.465800
H841	H84	0.251400	0.408800	0.512900
H851	H85	0.212400	0.345000	0.478500
H861	H86	0.204600	0.432200	0.431100
C831	C83	0.433400	0.151290	0.294810
H871	H87	0.445900	0.167400	0.242100
H881	H88	0.377300	0.142500	0.296500
H891	H89	0.482100	0.097600	0.312200
Ag41	Ag4	0.220960	0.928940	0.850780
Ag51	Ag5	0.396430	0.701150	0.798140
Ag61	Ag6	0.268510	0.900100	0.609460
S41	S4	0.279650	0.774450	0.897400
S51	S5	0.153420	0.957980	0.721210
S61	S6	0.400140	0.807290	0.693800
P51	P5	0.226460	0.878990	0.481250
P61	P6	0.287560	0.045930	0.579020
P71	P7	0.181580	0.046080	0.938740
P81	P8	0.500680	0.551770	0.805740
C841	C84	0.306310	0.896930	0.413300
C851	C85	0.396420	0.850000	0.427320
H901	H90	0.413700	0.809600	0.470100
C861	C86	0.461470	0.861580	0.379440
H911	H91	0.522800	0.828400	0.389000
C871	C87	0.436980	0.921110	0.318280
H921	H92	0.481500	0.929600	0.286100
C881	C88	0.347650	0.968620	0.303550
H931	H93	0.331000	0.009500	0.261100
C891	C89	0.281790	0.956750	0.350970
H941	H94	0.220500	0.989400	0.340700
C901	C90	0.220380	0.780680	0.445830
C911	C91	0.223910	0.712970	0.496650
H951	H95	0.229100	0.717400	0.550000
C921	C92	0.219800	0.638590	0.469900
H961	H96	0.222800	0.592100	0.505000
C931	C93	0.211520	0.631830	0.392860
H971	H97	0.208500	0.580800	0.374900
C941	C94	0.207590	0.698590	0.342030
H981	H98	0.201800	0.693900	0.288800
C951	C95	0.212100	0.772950	0.367990
H991	H99	0.209500	0.819000	0.332500
C961	C96	0.118570	0.963630	0.453690
H1001	H100	0.102600	0.952700	0.402400
H1011	H101	0.123500	0.020700	0.450400
C971	C97	0.044980	0.965780	0.511710
H1021	H102	0.060300	0.978100	0.562700
H1031	H103	0.041200	0.908300	0.516000
C981	C98	0.307990	0.094640	0.663300
C991	C99	0.339100	0.042020	0.729610
H1041	H104	0.347700	0.982700	0.730500
C1001	C100	0.357610	0.075550	0.794350
H1051	H105	0.378900	0.039200	0.839100
C1011	C101	0.345070	0.161700	0.793500
H1061	H106	0.357700	0.184700	0.837800
C1021	C102	0.314220	0.214640	0.728520
H1071	H107	0.305600	0.274000	0.728100
C1031	C103	0.295680	0.181420	0.663690
H1081	H108	0.274400	0.218300	0.619200
C1041	C104	0.184200	0.128110	0.541060
C1051	C105	0.176950	0.164540	0.466550
H1091	H109	0.228900	0.151500	0.435000
C1061	C106	0.094840	0.219600	0.438010
H1101	H110	0.090800	0.243900	0.387100
C1071	C107	0.018550	0.239280	0.483650
H1111	H111	0.962200	0.276900	0.464000
C1081	C108	0.024680	0.204280	0.557110
H1121	H112	0.972400	0.218200	0.588400
C1091	C109	0.106530	0.148630	0.586390
H1131	H113	0.109800	0.124400	0.637300
C1101	C110	0.371450	0.054930	0.509170
H1141	H114	0.366900	0.115600	0.505600
H1151	H115	0.358200	0.040900	0.458100
C1111	C111	0.466490	0.995270	0.530040
H1161	H116	0.480600	0.009500	0.580700
H1171	H117	0.471600	0.934500	0.533700
C1121	C112	0.263190	0.060940	0.998600
C1131	C113	0.319240	0.989540	0.041650
H1181	H118	0.313500	0.935600	0.039600
C1141	C114	0.383310	0.995850	0.087580
H1191	H119	0.421400	0.946200	0.116500
C1151	C115	0.392350	0.073300	0.091690
H1201	H120	0.436600	0.077500	0.123200
C1161	C116	0.336400	0.145300	0.049500
H1211	H121	0.341900	0.199300	0.052700
C1171	C117	0.272350	0.139630	0.002790
H1221	H122	0.234700	0.189300	0.973600
C1181	C118	0.115030	0.154040	0.898500
C1191	C119	0.119550	0.169420	0.820040
H1231	H123	0.156700	0.124100	0.789100
C1201	C120	0.070600	0.250200	0.786170
H1241	H124	0.074400	0.259900	0.732300
C1211	C121	0.016510	0.316180	0.830130
H1251	H125	0.983300	0.371600	0.806700
C1221	C122	0.010400	0.302030	0.908260
H1261	H126	0.972800	0.347600	0.938700
C1231	C123	0.059120	0.221320	0.942300
H1271	H127	0.054400	0.211700	0.996100
C1241	C124	0.106360	0.024020	0.010320
H1281	H128	0.081000	0.073200	0.044300
H1291	H129	0.140400	0.971400	0.042300
C1251	C125	0.030750	0.010950	0.971000
H1301	H130	0.056400	0.963400	0.935300
H1311	H131	0.995500	0.064500	0.940600
C1261	C126	0.492150	0.486320	0.730010
C1271	C127	0.562050	0.445430	0.679480
H1321	H132	0.617200	0.451800	0.683300
C1281	C128	0.551500	0.395600	0.623770
H1331	H133	0.599800	0.367700	0.589700
C1291	C129	0.472800	0.386040	0.617010
H1341	H134	0.466700	0.350600	0.579200
C1301	C130	0.401600	0.428300	0.665650
H1351	H135	0.346400	0.422600	0.660600
C1311	C131	0.411040	0.478890	0.721700
H1361	H136	0.361900	0.508500	0.754400
C1321	C132	0.617500	0.537240	0.807420
C1331	C133	0.639160	0.607350	0.786640
H1371	H137	0.593900	0.660800	0.769600
C1341	C134	0.726800	0.600100	0.790600
H1381	H138	0.741400	0.648400	0.775600
C1351	C135	0.792600	0.523300	0.816000
H1391	H139	0.852200	0.519000	0.819500
C1361	C136	0.772130	0.452700	0.836500
H1401	H140	0.817700	0.399400	0.853200
C1371	C137	0.685140	0.459730	0.832600
H1411	H141	0.671100	0.411100	0.847300
C1381	C138	0.489550	0.488290	0.891680
H1421	H142	0.535200	0.428500	0.889800
H1431	H143	0.430000	0.485200	0.892600
C1391	C139	0.500630	0.528100	0.964270
H1441	H144	0.557900	0.535900	0.961200
H1451	H145	0.451800	0.586000	0.968200
C1401	C140	0.327470	0.769830	0.987690
C1411	C141	0.412180	0.771660	0.995500
C1421	C142	0.446500	0.765170	0.068530
H1461	H146	0.504900	0.764000	0.073200
C1431	C143	0.398200	0.760380	0.134380
C1441	C144	0.313800	0.762010	0.125820
H1471	H147	0.279200	0.760500	0.170600
C1451	C145	0.276900	0.765720	0.054620
C1461	C146	0.466210	0.783500	0.927640
H1481	H148	0.428300	0.831500	0.893800
H1491	H149	0.515800	0.796500	0.945100
H1501	H150	0.489900	0.730100	0.899600
C1471	C147	0.438800	0.753000	0.212430
H1511	H151	0.475500	0.787500	0.211200
H1521	H152	0.391000	0.774700	0.251000
H1531	H153	0.476100	0.692200	0.225500
C1481	C148	0.185700	0.765700	0.050200
H1541	H154	0.189900	0.710900	0.030200
H1551	H155	0.158100	0.771900	0.101500
H1561	H156	0.149300	0.814100	0.016000
C1491	C149	0.066540	0.920160	0.739380
C1501	C150	0.080820	0.832420	0.735890
C1511	C151	0.010430	0.806400	0.751910
H1571	H157	0.020600	0.747000	0.748800
C1521	C152	0.925760	0.864400	0.772360
C1531	C153	0.912860	0.950500	0.775960
H1581	H158	0.855500	0.990900	0.790500
C1541	C154	0.980260	0.980340	0.759220
C1551	C155	0.171510	0.765340	0.717290
H1591	H159	0.213300	0.762000	0.757400
H1601	H160	0.167600	0.708800	0.714500
H1611	H161	0.192800	0.781500	0.667900
C1561	C156	0.850000	0.834900	0.789600
H1621	H162	0.874400	0.773700	0.807100
H1631	H163	0.811100	0.869600	0.829800
H1641	H164	0.815500	0.842400	0.743100
C1571	C157	0.961430	0.074710	0.763410
H1651	H165	0.969100	0.098700	0.712400
H1661	H166	0.900000	0.105300	0.781700
H1671	H167	0.002900	0.081800	0.798900
C1581	C158	0.502640	0.752930	0.644500
C1591	C159	0.514960	0.682230	0.599560
C1601	C160	0.598390	0.638180	0.566050
H1681	H168	0.607100	0.589100	0.537500
C1611	C161	0.668700	0.663300	0.572900
C1621	C162	0.655020	0.733120	0.617560
H1691	H169	0.703000	0.750900	0.623300
C1631	C163	0.574590	0.777780	0.653890
C1641	C164	0.440440	0.654060	0.587720
H1701	H170	0.393700	0.699500	0.557900
H1711	H171	0.463000	0.600500	0.560000
H1721	H172	0.415700	0.643700	0.637600
C1651	C165	0.758000	0.615100	0.534200
H1731	H173	0.748600	0.591200	0.487100
H1741	H174	0.787600	0.655000	0.521500
H1751	H175	0.795400	0.567800	0.568900
C1661	C166	0.566600	0.848710	0.705190
H1761	H176	0.554100	0.832600	0.757900
H1771	H177	0.622700	0.857500	0.703500
H1781	H178	0.517900	0.902400	0.687800
