data_YONNUL_clean_PM
_symmetry_space_group_name_H-M	'P1'
_cell_length_a	13.996600
_cell_length_b	13.996600
_cell_length_c	30.521000
_cell_angle_alpha	85.082800
_cell_angle_beta	85.082800
_cell_angle_gamma	88.520800
_symmetry_Int_Tables_number 1

loop_
_symmetry_equiv_pos_as_xyz
'x,y,z'

loop_
_atom_site_label
_atom_site_type_symbol
_atom_site_fract_x
_atom_site_fract_y
_atom_site_fract_z
Zn11	Zn1	0.601870	0.195030	0.531200
Zn21	Zn2	0.811530	0.195710	0.514580
Zn31	Zn3	0.195030	0.601870	0.031200
Zn41	Zn4	0.195710	0.811530	0.014580
H11	H1	0.831900	0.689100	0.717400
H21	H2	0.804400	0.773800	0.747100
H31	H3	0.568700	0.822900	0.670700
H41	H4	0.576700	0.940500	0.615100
H51	H5	0.861600	0.947200	0.616000
H61	H6	0.855400	0.827200	0.672400
H71	H7	0.815900	0.571900	0.825000
H81	H8	0.882200	0.583200	0.780500
H91	H9	0.951300	0.554500	0.857500
H101	H10	0.036900	0.563300	0.917700
H111	H11	0.012400	0.849600	0.906100
H121	H12	0.925400	0.842400	0.845700
H131	H13	0.695600	0.750400	0.814000
H141	H14	0.615000	0.710400	0.787900
H151	H15	0.544500	0.782700	0.848900
H161	H16	0.425400	0.812800	0.902900
H171	H17	0.458800	0.543600	0.958600
H181	H18	0.583900	0.517700	0.905900
H191	H19	0.650600	0.578000	0.739800
H201	H20	0.683900	0.511700	0.780200
H211	H21	0.892100	0.445100	0.673100
H221	H22	0.863400	0.352400	0.616900
H231	H23	0.581800	0.361600	0.653100
H241	H24	0.608200	0.454800	0.710000
H251	H25	0.460400	0.123000	0.475100
H261	H26	0.298300	0.127100	0.467900
H271	H27	0.259500	0.262500	0.579100
H281	H28	0.421200	0.254600	0.583100
H291	H29	0.961700	0.321700	0.541000
H301	H30	0.123700	0.321100	0.546400
H311	H31	0.146800	0.077600	0.487000
H321	H32	0.982800	0.086800	0.481300
H331	H33	0.689100	0.831900	0.217400
H341	H34	0.773800	0.804400	0.247100
H351	H35	0.822900	0.568700	0.170700
H361	H36	0.940500	0.576700	0.115100
H371	H37	0.947200	0.861600	0.116000
H381	H38	0.827200	0.855400	0.172400
H391	H39	0.571900	0.815900	0.325000
H401	H40	0.583200	0.882200	0.280500
H411	H41	0.554500	0.951300	0.357500
H421	H42	0.563300	0.036900	0.417700
H431	H43	0.849600	0.012400	0.406100
H441	H44	0.842400	0.925400	0.345700
H451	H45	0.750400	0.695600	0.314000
H461	H46	0.710400	0.615000	0.287900
H471	H47	0.782700	0.544500	0.348900
H481	H48	0.812800	0.425400	0.402900
H491	H49	0.543600	0.458800	0.458600
H501	H50	0.517700	0.583900	0.405900
H511	H51	0.578000	0.650600	0.239800
H521	H52	0.511700	0.683900	0.280200
H531	H53	0.445100	0.892100	0.173100
H541	H54	0.352400	0.863400	0.116900
H551	H55	0.361600	0.581800	0.153100
H561	H56	0.454800	0.608200	0.210000
H571	H57	0.123000	0.460400	0.975100
H581	H58	0.127100	0.298300	0.967900
H591	H59	0.262500	0.259500	0.079100
H601	H60	0.254600	0.421200	0.083100
H611	H61	0.321700	0.961700	0.041000
H621	H62	0.321100	0.123700	0.046400
H631	H63	0.077600	0.146800	0.987000
H641	H64	0.086800	0.982800	0.981300
C11	C1	0.747100	0.644700	0.774230
C21	C2	0.780600	0.717000	0.735920
C31	C3	0.711800	0.813000	0.677610
C41	C4	0.627700	0.848100	0.659900
C51	C5	0.633000	0.918800	0.627100
C61	C6	0.718800	0.960800	0.610370
C71	C7	0.802500	0.922900	0.627500
C81	C8	0.799100	0.850700	0.661000
C91	C9	0.719400	0.044400	0.576940
C101	C10	0.834200	0.615000	0.799300
C111	C11	0.926200	0.698400	0.846050
C121	C12	0.962700	0.613900	0.867500
C131	C13	0.014900	0.619500	0.903100
C141	C14	0.036000	0.706600	0.917750
C151	C15	0.000400	0.790400	0.896200
C161	C16	0.947300	0.786100	0.860300
C171	C17	0.093100	0.711100	0.956550
C181	C18	0.670800	0.693000	0.803800
C191	C19	0.575100	0.647100	0.871340
C201	C20	0.527600	0.735000	0.871100
C211	C21	0.455800	0.753000	0.903200
C221	C22	0.428700	0.680300	0.936670
C231	C23	0.476500	0.592100	0.936900
C241	C24	0.550600	0.576000	0.904900
C251	C25	0.345300	0.694700	0.969480
C261	C26	0.705100	0.558300	0.756180
C271	C27	0.753500	0.461500	0.696480
C281	C28	0.829600	0.429400	0.668900
C291	C29	0.812300	0.374300	0.635100
C301	C30	0.719600	0.351400	0.628150
C311	C31	0.643700	0.379900	0.656880
C321	C32	0.659300	0.435300	0.691040
C331	C33	0.702600	0.293200	0.590410
C341	C34	0.419300	0.151300	0.496100
C351	C35	0.321800	0.153400	0.491700
C361	C36	0.259000	0.194200	0.522490
C371	C37	0.298700	0.233700	0.557650
C381	C38	0.395800	0.228800	0.559630
C391	C39	0.999400	0.271600	0.530300
C401	C40	0.096600	0.271000	0.533800
C411	C41	0.154800	0.197200	0.518800
C421	C42	0.110700	0.127700	0.498600
C431	C43	0.011300	0.133500	0.495500
C441	C44	0.644700	0.747100	0.274230
C451	C45	0.717000	0.780600	0.235920
C461	C46	0.813000	0.711800	0.177610
C471	C47	0.848100	0.627700	0.159900
C481	C48	0.918800	0.633000	0.127100
C491	C49	0.960800	0.718800	0.110370
C501	C50	0.922900	0.802500	0.127500
C511	C51	0.850700	0.799100	0.161000
C521	C52	0.044400	0.719400	0.076940
C531	C53	0.615000	0.834200	0.299300
C541	C54	0.698400	0.926200	0.346050
C551	C55	0.613900	0.962700	0.367500
C561	C56	0.619500	0.014900	0.403100
C571	C57	0.706600	0.036000	0.417750
C581	C58	0.790400	0.000400	0.396200
C591	C59	0.786100	0.947300	0.360300
C601	C60	0.711100	0.093100	0.456550
C611	C61	0.693000	0.670800	0.303800
C621	C62	0.647100	0.575100	0.371340
C631	C63	0.735000	0.527600	0.371100
C641	C64	0.753000	0.455800	0.403200
C651	C65	0.680300	0.428700	0.436670
C661	C66	0.592100	0.476500	0.436900
C671	C67	0.576000	0.550600	0.404900
C681	C68	0.694700	0.345300	0.469480
C691	C69	0.558300	0.705100	0.256180
C701	C70	0.461500	0.753500	0.196480
C711	C71	0.429400	0.829600	0.168900
C721	C72	0.374300	0.812300	0.135100
C731	C73	0.351400	0.719600	0.128150
C741	C74	0.379900	0.643700	0.156880
C751	C75	0.435300	0.659300	0.191040
C761	C76	0.293200	0.702600	0.090410
C771	C77	0.151300	0.419300	0.996100
C781	C78	0.153400	0.321800	0.991700
C791	C79	0.194200	0.259000	0.022490
C801	C80	0.233700	0.298700	0.057650
C811	C81	0.228800	0.395800	0.059630
C821	C82	0.271600	0.999400	0.030300
C831	C83	0.271000	0.096600	0.033800
C841	C84	0.197200	0.154800	0.018800
C851	C85	0.127700	0.110700	0.998600
C861	C86	0.133500	0.011300	0.995500
N11	N1	0.456600	0.189000	0.529840
N21	N2	0.957100	0.201300	0.511790
N31	N3	0.189000	0.456600	0.029840
N41	N4	0.201300	0.957100	0.011790
O11	O1	0.700200	0.741600	0.711060
O21	O2	0.641000	0.073200	0.564550
O31	O3	0.798900	0.080500	0.562730
O41	O4	0.870800	0.702000	0.812160
O51	O5	0.128700	0.634900	0.973120
O61	O6	0.103200	0.793400	0.969890
O71	O7	0.645700	0.622900	0.841000
O81	O8	0.307300	0.777100	0.970080
O91	O9	0.320300	0.623500	0.995050
O101	O10	0.778700	0.517300	0.727860
O111	O11	0.775300	0.279300	0.563920
O121	O12	0.619400	0.263800	0.586850
O131	O13	0.741600	0.700200	0.211060
O141	O14	0.073200	0.641000	0.064550
O151	O15	0.080500	0.798900	0.062730
O161	O16	0.702000	0.870800	0.312160
O171	O17	0.634900	0.128700	0.473120
O181	O18	0.793400	0.103200	0.469890
O191	O19	0.622900	0.645700	0.341000
O201	O20	0.777100	0.307300	0.470080
O211	O21	0.623500	0.320300	0.495050
O221	O22	0.517300	0.778700	0.227860
O231	O23	0.279300	0.775300	0.063920
O241	O24	0.263800	0.619400	0.086850
Zn51	Zn5	0.804970	0.398130	0.968800
Zn61	Zn6	0.804290	0.188470	0.985420
Zn71	Zn7	0.398130	0.804970	0.468800
Zn81	Zn8	0.188470	0.804290	0.485420
H651	H65	0.310900	0.168100	0.782600
H661	H66	0.226200	0.195600	0.752900
H671	H67	0.177100	0.431300	0.829300
H681	H68	0.059500	0.423300	0.884900
H691	H69	0.052800	0.138400	0.884000
H701	H70	0.172800	0.144600	0.827600
H711	H71	0.428100	0.184100	0.675000
H721	H72	0.416800	0.117800	0.719500
H731	H73	0.445500	0.048700	0.642500
H741	H74	0.436700	0.963100	0.582300
H751	H75	0.150400	0.987600	0.593900
H761	H76	0.157600	0.074600	0.654300
H771	H77	0.249600	0.304400	0.686000
H781	H78	0.289600	0.385000	0.712100
H791	H79	0.217300	0.455500	0.651100
H801	H80	0.187200	0.574600	0.597100
H811	H81	0.456400	0.541200	0.541400
H821	H82	0.482300	0.416100	0.594100
H831	H83	0.422000	0.349400	0.760200
H841	H84	0.488300	0.316100	0.719800
H851	H85	0.554900	0.107900	0.826900
H861	H86	0.647600	0.136600	0.883100
H871	H87	0.638400	0.418200	0.846900
H881	H88	0.545200	0.391800	0.790000
H891	H89	0.877000	0.539600	0.024900
H901	H90	0.872900	0.701700	0.032100
H911	H91	0.737500	0.740500	0.920900
H921	H92	0.745400	0.578800	0.916900
H931	H93	0.678300	0.038300	0.959000
H941	H94	0.678900	0.876300	0.953600
H951	H95	0.922400	0.853200	0.013000
H961	H96	0.913200	0.017200	0.018700
H971	H97	0.168100	0.310900	0.282600
H981	H98	0.195600	0.226200	0.252900
H991	H99	0.431300	0.177100	0.329300
H1001	H100	0.423300	0.059500	0.384900
H1011	H101	0.138400	0.052800	0.384000
H1021	H102	0.144600	0.172800	0.327600
H1031	H103	0.184100	0.428100	0.175000
H1041	H104	0.117800	0.416800	0.219500
H1051	H105	0.048700	0.445500	0.142500
H1061	H106	0.963100	0.436700	0.082300
H1071	H107	0.987600	0.150400	0.093900
H1081	H108	0.074600	0.157600	0.154300
H1091	H109	0.304400	0.249600	0.186000
H1101	H110	0.385000	0.289600	0.212100
H1111	H111	0.455500	0.217300	0.151100
H1121	H112	0.574600	0.187200	0.097100
H1131	H113	0.541200	0.456400	0.041400
H1141	H114	0.416100	0.482300	0.094100
H1151	H115	0.349400	0.422000	0.260200
H1161	H116	0.316100	0.488300	0.219800
H1171	H117	0.107900	0.554900	0.326900
H1181	H118	0.136600	0.647600	0.383100
H1191	H119	0.418200	0.638400	0.346900
H1201	H120	0.391800	0.545200	0.290000
H1211	H121	0.539600	0.877000	0.524900
H1221	H122	0.701700	0.872900	0.532100
H1231	H123	0.740500	0.737500	0.420900
H1241	H124	0.578800	0.745400	0.416900
H1251	H125	0.038300	0.678300	0.459000
H1261	H126	0.876300	0.678900	0.453600
H1271	H127	0.853200	0.922400	0.513000
H1281	H128	0.017200	0.913200	0.518700
C871	C87	0.355300	0.252900	0.725770
C881	C88	0.283000	0.219400	0.764080
C891	C89	0.187000	0.288200	0.822390
C901	C90	0.151900	0.372300	0.840100
C911	C91	0.081200	0.367000	0.872900
C921	C92	0.039200	0.281200	0.889630
C931	C93	0.077100	0.197500	0.872500
C941	C94	0.149300	0.200900	0.839000
C951	C95	0.955600	0.280600	0.923060
C961	C96	0.385000	0.165800	0.700700
C971	C97	0.301600	0.073800	0.653950
C981	C98	0.386100	0.037300	0.632500
C991	C99	0.380500	0.985100	0.596900
C1001	C100	0.293400	0.964000	0.582250
C1011	C101	0.209600	0.999600	0.603800
C1021	C102	0.213900	0.052700	0.639700
C1031	C103	0.288900	0.906900	0.543450
C1041	C104	0.307000	0.329200	0.696200
C1051	C105	0.352900	0.424900	0.628660
C1061	C106	0.265000	0.472400	0.628900
C1071	C107	0.247000	0.544200	0.596800
C1081	C108	0.319700	0.571300	0.563330
C1091	C109	0.407900	0.523500	0.563100
C1101	C110	0.424000	0.449400	0.595100
C1111	C111	0.305300	0.654700	0.530520
C1121	C112	0.441700	0.294900	0.743820
C1131	C113	0.538500	0.246500	0.803520
C1141	C114	0.570600	0.170400	0.831100
C1151	C115	0.625700	0.187700	0.864900
C1161	C116	0.648600	0.280400	0.871850
C1171	C117	0.620100	0.356300	0.843120
C1181	C118	0.564700	0.340700	0.808960
C1191	C119	0.706800	0.297400	0.909590
C1201	C120	0.848700	0.580700	0.003900
C1211	C121	0.846600	0.678200	0.008300
C1221	C122	0.805800	0.741000	0.977510
C1231	C123	0.766300	0.701300	0.942350
C1241	C124	0.771200	0.604200	0.940370
C1251	C125	0.728400	0.000600	0.969700
C1261	C126	0.729000	0.903400	0.966200
C1271	C127	0.802800	0.845200	0.981200
C1281	C128	0.872300	0.889300	0.001400
C1291	C129	0.866500	0.988700	0.004500
C1301	C130	0.252900	0.355300	0.225770
C1311	C131	0.219400	0.283000	0.264080
C1321	C132	0.288200	0.187000	0.322390
C1331	C133	0.372300	0.151900	0.340100
C1341	C134	0.367000	0.081200	0.372900
C1351	C135	0.281200	0.039200	0.389630
C1361	C136	0.197500	0.077100	0.372500
C1371	C137	0.200900	0.149300	0.339000
C1381	C138	0.280600	0.955600	0.423060
C1391	C139	0.165800	0.385000	0.200700
C1401	C140	0.073800	0.301600	0.153950
C1411	C141	0.037300	0.386100	0.132500
C1421	C142	0.985100	0.380500	0.096900
C1431	C143	0.964000	0.293400	0.082250
C1441	C144	0.999600	0.209600	0.103800
C1451	C145	0.052700	0.213900	0.139700
C1461	C146	0.906900	0.288900	0.043450
C1471	C147	0.329200	0.307000	0.196200
C1481	C148	0.424900	0.352900	0.128660
C1491	C149	0.472400	0.265000	0.128900
C1501	C150	0.544200	0.247000	0.096800
C1511	C151	0.571300	0.319700	0.063330
C1521	C152	0.523500	0.407900	0.063100
C1531	C153	0.449400	0.424000	0.095100
C1541	C154	0.654700	0.305300	0.030520
C1551	C155	0.294900	0.441700	0.243820
C1561	C156	0.246500	0.538500	0.303520
C1571	C157	0.170400	0.570600	0.331100
C1581	C158	0.187700	0.625700	0.364900
C1591	C159	0.280400	0.648600	0.371850
C1601	C160	0.356300	0.620100	0.343120
C1611	C161	0.340700	0.564700	0.308960
C1621	C162	0.297400	0.706800	0.409590
C1631	C163	0.580700	0.848700	0.503900
C1641	C164	0.678200	0.846600	0.508300
C1651	C165	0.741000	0.805800	0.477510
C1661	C166	0.701300	0.766300	0.442350
C1671	C167	0.604200	0.771200	0.440370
C1681	C168	0.000600	0.728400	0.469700
C1691	C169	0.903400	0.729000	0.466200
C1701	C170	0.845200	0.802800	0.481200
C1711	C171	0.889300	0.872300	0.501400
C1721	C172	0.988700	0.866500	0.504500
N51	N5	0.811000	0.543400	0.970160
N61	N6	0.798700	0.042900	0.988210
N71	N7	0.543400	0.811000	0.470160
N81	N8	0.042900	0.798700	0.488210
O251	O25	0.258400	0.299800	0.788940
O261	O26	0.926800	0.359000	0.935450
O271	O27	0.919500	0.201100	0.937270
O281	O28	0.298000	0.129200	0.687840
O291	O29	0.365100	0.871300	0.526880
O301	O30	0.206600	0.896800	0.530110
O311	O31	0.377100	0.354300	0.659000
O321	O32	0.222900	0.692700	0.529920
O331	O33	0.376500	0.679700	0.504950
O341	O34	0.482700	0.221300	0.772140
O351	O35	0.720700	0.224700	0.936080
O361	O36	0.736200	0.380600	0.913150
O371	O37	0.299800	0.258400	0.288940
O381	O38	0.359000	0.926800	0.435450
O391	O39	0.201100	0.919500	0.437270
O401	O40	0.129200	0.298000	0.187840
O411	O41	0.871300	0.365100	0.026880
O421	O42	0.896800	0.206600	0.030110
O431	O43	0.354300	0.377100	0.159000
O441	O44	0.692700	0.222900	0.029920
O451	O45	0.679700	0.376500	0.004950
O461	O46	0.221300	0.482700	0.272140
O471	O47	0.224700	0.720700	0.436080
O481	O48	0.380600	0.736200	0.413150
