data_YOPMAS_clean_PM
_symmetry_space_group_name_H-M	'P1'
_cell_length_a	11.058000
_cell_length_b	12.034000
_cell_length_c	16.167800
_cell_angle_alpha	99.946700
_cell_angle_beta	109.997000
_cell_angle_gamma	90.000000
_symmetry_Int_Tables_number 1

loop_
_symmetry_equiv_pos_as_xyz
'x,y,z'

loop_
_atom_site_label
_atom_site_type_symbol
_atom_site_fract_x
_atom_site_fract_y
_atom_site_fract_z
Co11	Co1	0.204750	0.528440	0.225720
Co21	Co2	0.979030	0.971560	0.774280
Co31	Co3	0.795250	0.471560	0.774280
Co41	Co4	0.020970	0.028440	0.225720
Co51	Co5	0.052440	0.750000	0.000000
Co61	Co6	0.947560	0.250000	0.000000
H11	H1	0.747900	0.405300	0.178200
H21	H2	0.658200	0.523800	0.265600
H31	H3	0.719800	0.715100	0.301800
H41	H4	0.374900	0.683500	0.168600
H51	H5	0.502600	0.671700	0.083600
H61	H6	0.365500	0.352000	0.982200
H71	H7	0.240400	0.372500	0.070600
H81	H8	0.094500	0.355100	0.302000
H91	H9	0.008500	0.339200	0.409200
H101	H10	0.056400	0.673200	0.487200
H111	H11	0.134100	0.680700	0.373600
H121	H12	0.569700	0.094700	0.821800
H131	H13	0.392600	0.976200	0.734400
H141	H14	0.418000	0.784900	0.698200
H151	H15	0.206300	0.816500	0.831400
H161	H16	0.419000	0.828300	0.916400
H171	H17	0.383300	0.148000	0.017800
H181	H18	0.169800	0.127500	0.929400
H191	H19	0.792500	0.144900	0.698000
H201	H20	0.599300	0.160800	0.590800
H211	H21	0.569200	0.826800	0.512800
H221	H22	0.760500	0.819300	0.626400
H231	H23	0.252100	0.594700	0.821800
H241	H24	0.341800	0.476200	0.734400
H251	H25	0.280200	0.284900	0.698200
H261	H26	0.625100	0.316500	0.831400
H271	H27	0.497400	0.328300	0.916400
H281	H28	0.634500	0.648000	0.017800
H291	H29	0.759600	0.627500	0.929400
H301	H30	0.905500	0.644900	0.698000
H311	H31	0.991500	0.660800	0.590800
H321	H32	0.943600	0.326800	0.512800
H331	H33	0.865900	0.319300	0.626400
H341	H34	0.430300	0.905300	0.178200
H351	H35	0.607400	0.023800	0.265600
H361	H36	0.582000	0.215100	0.301800
H371	H37	0.793700	0.183500	0.168600
H381	H38	0.581000	0.171700	0.083600
H391	H39	0.616700	0.852000	0.982200
H401	H40	0.830200	0.872500	0.070600
H411	H41	0.207500	0.855100	0.302000
H421	H42	0.400700	0.839200	0.409200
H431	H43	0.430800	0.173200	0.487200
H441	H44	0.239500	0.180700	0.373600
C11	C1	0.907700	0.636700	0.188200
C21	C2	0.866400	0.521500	0.165200
C31	C3	0.773900	0.481800	0.194000
C41	C4	0.719300	0.552100	0.245600
C51	C5	0.756900	0.666600	0.267200
C61	C6	0.848100	0.709900	0.238800
C71	C7	0.010000	0.678200	0.155000
C81	C8	0.925500	0.438700	0.112200
C91	C9	0.884800	0.834900	0.264600
C101	C10	0.374600	0.614800	0.131800
C111	C11	0.452400	0.608400	0.081400
C121	C12	0.456000	0.505600	0.025800
C131	C13	0.371900	0.419900	0.021400
C141	C14	0.295700	0.433100	0.074600
C151	C15	0.087200	0.420300	0.339800
C161	C16	0.036800	0.410200	0.405000
C171	C17	0.027600	0.504000	0.464600
C181	C18	0.063800	0.606600	0.450800
C191	C19	0.111300	0.610400	0.382400
C201	C20	0.719500	0.863300	0.811800
C211	C21	0.701200	0.978500	0.834800
C221	C22	0.579900	0.018200	0.806000
C231	C23	0.473700	0.947900	0.754400
C241	C24	0.489700	0.833400	0.732800
C251	C25	0.609300	0.790100	0.761200
C261	C26	0.855000	0.821800	0.845000
C271	C27	0.813300	0.061300	0.887800
C281	C28	0.620200	0.665100	0.735400
C291	C29	0.242800	0.885200	0.868200
C301	C30	0.371000	0.891600	0.918600
C311	C31	0.430200	0.994400	0.974200
C321	C32	0.350500	0.080100	0.978600
C331	C33	0.221100	0.066900	0.925400
C341	C34	0.747400	0.079700	0.660200
C351	C35	0.631800	0.089800	0.595000
C361	C36	0.563000	0.996000	0.535400
C371	C37	0.613000	0.893400	0.549200
C381	C38	0.728900	0.889600	0.617600
C391	C39	0.092300	0.363300	0.811800
C401	C40	0.133600	0.478500	0.834800
C411	C41	0.226100	0.518200	0.806000
C421	C42	0.280700	0.447900	0.754400
C431	C43	0.243100	0.333400	0.732800
C441	C44	0.151900	0.290100	0.761200
C451	C45	0.990000	0.321800	0.845000
C461	C46	0.074500	0.561300	0.887800
C471	C47	0.115200	0.165100	0.735400
C481	C48	0.625400	0.385200	0.868200
C491	C49	0.547600	0.391600	0.918600
C501	C50	0.544000	0.494400	0.974200
C511	C51	0.628100	0.580100	0.978600
C521	C52	0.704300	0.566900	0.925400
C531	C53	0.912800	0.579700	0.660200
C541	C54	0.963200	0.589800	0.595000
C551	C55	0.972400	0.496000	0.535400
C561	C56	0.936200	0.393400	0.549200
C571	C57	0.888700	0.389600	0.617600
C581	C58	0.280500	0.136700	0.188200
C591	C59	0.298800	0.021500	0.165200
C601	C60	0.420100	0.981800	0.194000
C611	C61	0.526300	0.052100	0.245600
C621	C62	0.510300	0.166600	0.267200
C631	C63	0.390700	0.209900	0.238800
C641	C64	0.145000	0.178200	0.155000
C651	C65	0.186700	0.938700	0.112200
C661	C66	0.379800	0.334900	0.264600
C671	C67	0.757200	0.114800	0.131800
C681	C68	0.629000	0.108400	0.081400
C691	C69	0.569800	0.005600	0.025800
C701	C70	0.649500	0.919900	0.021400
C711	C71	0.778900	0.933100	0.074600
C721	C72	0.252600	0.920300	0.339800
C731	C73	0.368200	0.910200	0.405000
C741	C74	0.437000	0.004000	0.464600
C751	C75	0.387000	0.106600	0.450800
C761	C76	0.271100	0.110400	0.382400
N11	N1	0.298300	0.528400	0.131800
N21	N2	0.126100	0.519000	0.328800
N31	N3	0.166500	0.971600	0.868200
N41	N4	0.797300	0.981000	0.671200
N51	N5	0.701700	0.471600	0.868200
N61	N6	0.873900	0.481000	0.671200
N71	N7	0.833500	0.028400	0.131800
N81	N8	0.202700	0.019000	0.328800
O11	O1	0.965640	0.699200	0.076880
O21	O2	0.125980	0.681200	0.201760
O31	O3	0.970330	0.868900	0.238260
O41	O4	0.829900	0.896200	0.308600
O51	O5	0.042210	0.450100	0.121420
O61	O6	0.853400	0.356000	0.059600
O71	O7	0.888760	0.800800	0.923120
O81	O8	0.924220	0.818800	0.798240
O91	O9	0.732070	0.631100	0.761740
O101	O10	0.521300	0.603800	0.691400
O111	O11	0.920790	0.049900	0.878580
O121	O12	0.793800	0.144000	0.940400
O131	O13	0.034360	0.300800	0.923120
O141	O14	0.874020	0.318800	0.798240
O151	O15	0.029670	0.131100	0.761740
O161	O16	0.170100	0.103800	0.691400
O171	O17	0.957790	0.549900	0.878580
O181	O18	0.146600	0.644000	0.940400
O191	O19	0.111240	0.199200	0.076880
O201	O20	0.075780	0.181200	0.201760
O211	O21	0.267930	0.368900	0.238260
O221	O22	0.478700	0.396200	0.308600
O231	O23	0.079210	0.950100	0.121420
O241	O24	0.206200	0.856000	0.059600
