data_YOPNUO_clean_PM
_symmetry_space_group_name_H-M	'P1'
_cell_length_a	9.374000
_cell_length_b	21.316000
_cell_length_c	17.130000
_cell_angle_alpha	90.000000
_cell_angle_beta	118.334000
_cell_angle_gamma	90.000000
_symmetry_Int_Tables_number 1

loop_
_symmetry_equiv_pos_as_xyz
'x,y,z'

loop_
_atom_site_label
_atom_site_type_symbol
_atom_site_fract_x
_atom_site_fract_y
_atom_site_fract_z
N11	N1	0.181300	0.754100	0.180700
C11	C1	0.275700	0.785600	0.252500
H11	H1	0.384500	0.774300	0.282600
C21	C2	0.025200	0.770400	0.140000
H21	H2	0.954200	0.747900	0.090000
Cd11	Cd1	0.722370	0.187010	0.388810
Cd21	Cd2	0.293080	0.992530	0.090290
O11	O1	0.470200	0.133500	0.367700
O21	O2	0.464400	0.210400	0.284200
O31	O3	0.312100	0.077700	0.179600
O41	O4	0.108700	0.013200	0.147800
O51	O5	0.910100	0.118100	0.997200
O61	O6	0.716800	0.070700	0.013200
O71	O7	0.961400	0.285100	0.027600
O81	O8	0.721200	0.248400	0.996500
N21	N2	0.831800	0.092400	0.389100
C31	C3	0.739200	0.045200	0.339500
H31	H3	0.627200	0.050300	0.310800
C41	C4	0.801800	0.989900	0.329200
H41	H4	0.732200	0.958500	0.293900
C51	C5	0.970500	0.979900	0.371300
C61	C6	0.063600	0.029100	0.420900
H51	H5	0.175800	0.025100	0.450200
C71	C7	0.990600	0.088100	0.428800
H61	H6	0.055200	0.121600	0.461200
C81	C8	0.040000	0.918300	0.357300
H71	H7	0.156800	0.918900	0.393800
H81	H8	0.998300	0.883800	0.377500
C91	C9	0.002700	0.906700	0.267000
H91	H9	0.034600	0.943800	0.246500
H101	H10	0.885600	0.903800	0.232700
C101	C10	0.070200	0.852000	0.242100
C111	C11	0.963700	0.819200	0.168400
H111	H11	0.854100	0.829400	0.138600
C121	C12	0.226900	0.833100	0.286200
H121	H12	0.299500	0.852600	0.338800
C131	C13	0.872900	0.249900	0.044700
C141	C14	0.951500	0.210600	0.129600
H131	H13	0.932200	0.234500	0.172600
C151	C15	0.131400	0.206800	0.169900
H141	H14	0.176200	0.248900	0.181800
H151	H15	0.159900	0.187300	0.128000
C161	C16	0.206800	0.169000	0.256500
H161	H16	0.173400	0.190000	0.296100
C171	C17	0.393200	0.169100	0.305300
C181	C18	0.134200	0.103200	0.241000
H171	H17	0.176700	0.083000	0.299200
C191	C19	0.948600	0.108600	0.203000
H181	H18	0.902700	0.066700	0.190000
H191	H19	0.926400	0.126200	0.248300
C201	C20	0.862600	0.148300	0.119400
H201	H20	0.755700	0.158700	0.113000
C211	C21	0.187200	0.062500	0.184200
C221	C22	0.833600	0.111100	0.037600
N31	N3	0.818700	0.254100	0.319300
C231	C23	0.724300	0.285600	0.247500
H211	H21	0.615500	0.274300	0.217400
C241	C24	0.974800	0.270400	0.360000
H221	H22	0.045800	0.247900	0.410000
Cd31	Cd3	0.277630	0.687010	0.111190
Cd41	Cd4	0.706920	0.492530	0.409710
O91	O9	0.529800	0.633500	0.132300
O101	O10	0.535600	0.710400	0.215800
O111	O11	0.687900	0.577700	0.320400
O121	O12	0.891300	0.513200	0.352200
O131	O13	0.089900	0.618100	0.502800
O141	O14	0.283200	0.570700	0.486800
O151	O15	0.038600	0.785100	0.472400
O161	O16	0.278800	0.748400	0.503500
N41	N4	0.168200	0.592400	0.110900
C251	C25	0.260800	0.545200	0.160500
H231	H23	0.372800	0.550300	0.189200
C261	C26	0.198200	0.489900	0.170800
H241	H24	0.267800	0.458500	0.206100
C271	C27	0.029500	0.479900	0.128700
C281	C28	0.936400	0.529100	0.079100
H251	H25	0.824200	0.525100	0.049800
C291	C29	0.009400	0.588100	0.071200
H261	H26	0.944800	0.621600	0.038800
C301	C30	0.960000	0.418300	0.142700
H271	H27	0.843200	0.418900	0.106200
H281	H28	0.001700	0.383800	0.122500
C311	C31	0.997300	0.406700	0.233000
H291	H29	0.965400	0.443800	0.253500
H301	H30	0.114400	0.403800	0.267300
C321	C32	0.929800	0.352000	0.257900
C331	C33	0.036300	0.319200	0.331600
H311	H31	0.145900	0.329400	0.361400
C341	C34	0.773100	0.333100	0.213800
H321	H32	0.700500	0.352600	0.161200
C351	C35	0.127100	0.749900	0.455300
C361	C36	0.048500	0.710600	0.370400
H331	H33	0.067800	0.734500	0.327400
C371	C37	0.868600	0.706800	0.330100
H341	H34	0.823800	0.748900	0.318200
H351	H35	0.840100	0.687300	0.372000
C381	C38	0.793200	0.669000	0.243500
H361	H36	0.826600	0.690000	0.203900
C391	C39	0.606800	0.669100	0.194700
C401	C40	0.865800	0.603200	0.259000
H371	H37	0.823300	0.583000	0.200800
C411	C41	0.051400	0.608600	0.297000
H381	H38	0.097300	0.566700	0.310000
H391	H39	0.073600	0.626200	0.251700
C421	C42	0.137400	0.648300	0.380600
H401	H40	0.244300	0.658700	0.387000
C431	C43	0.812800	0.562500	0.315800
C441	C44	0.166400	0.611100	0.462400
N51	N5	0.818700	0.245900	0.819300
C451	C45	0.724300	0.214400	0.747500
H411	H41	0.615500	0.225700	0.717400
C461	C46	0.974800	0.229600	0.860000
H421	H42	0.045800	0.252100	0.910000
Cd51	Cd5	0.277630	0.812990	0.611190
Cd61	Cd6	0.706920	0.007470	0.909710
O171	O17	0.529800	0.866500	0.632300
O181	O18	0.535600	0.789600	0.715800
O191	O19	0.687900	0.922300	0.820400
O201	O20	0.891300	0.986800	0.852200
O211	O21	0.089900	0.881900	0.002800
O221	O22	0.283200	0.929300	0.986800
O231	O23	0.038600	0.714900	0.972400
O241	O24	0.278800	0.751600	0.003500
N61	N6	0.168200	0.907600	0.610900
C471	C47	0.260800	0.954800	0.660500
H431	H43	0.372800	0.949700	0.689200
C481	C48	0.198200	0.010100	0.670800
H441	H44	0.267800	0.041500	0.706100
C491	C49	0.029500	0.020100	0.628700
C501	C50	0.936400	0.970900	0.579100
H451	H45	0.824200	0.974900	0.549800
C511	C51	0.009400	0.911900	0.571200
H461	H46	0.944800	0.878400	0.538800
C521	C52	0.960000	0.081700	0.642700
H471	H47	0.843200	0.081100	0.606200
H481	H48	0.001700	0.116200	0.622500
C531	C53	0.997300	0.093300	0.733000
H491	H49	0.965400	0.056200	0.753500
H501	H50	0.114400	0.096200	0.767300
C541	C54	0.929800	0.148000	0.757900
C551	C55	0.036300	0.180800	0.831600
H511	H51	0.145900	0.170600	0.861400
C561	C56	0.773100	0.166900	0.713800
H521	H52	0.700500	0.147400	0.661200
C571	C57	0.127100	0.750100	0.955300
C581	C58	0.048500	0.789400	0.870400
H531	H53	0.067800	0.765500	0.827400
C591	C59	0.868600	0.793200	0.830100
H541	H54	0.823800	0.751100	0.818200
H551	H55	0.840100	0.812700	0.872000
C601	C60	0.793200	0.831000	0.743500
H561	H56	0.826600	0.810000	0.703900
C611	C61	0.606800	0.830900	0.694700
C621	C62	0.865800	0.896800	0.759000
H571	H57	0.823300	0.917000	0.700800
C631	C63	0.051400	0.891400	0.797000
H581	H58	0.097300	0.933300	0.810000
H591	H59	0.073600	0.873800	0.751700
C641	C64	0.137400	0.851700	0.880600
H601	H60	0.244300	0.841300	0.887000
C651	C65	0.812800	0.937500	0.815800
C661	C66	0.166400	0.888900	0.962400
N71	N7	0.181300	0.745900	0.680700
C671	C67	0.275700	0.714400	0.752500
H611	H61	0.384500	0.725700	0.782600
C681	C68	0.025200	0.729600	0.640000
H621	H62	0.954200	0.752100	0.590000
Cd71	Cd7	0.722370	0.312990	0.888810
Cd81	Cd8	0.293080	0.507470	0.590290
O251	O25	0.470200	0.366500	0.867700
O261	O26	0.464400	0.289600	0.784200
O271	O27	0.312100	0.422300	0.679600
O281	O28	0.108700	0.486800	0.647800
O291	O29	0.910100	0.381900	0.497200
O301	O30	0.716800	0.429300	0.513200
O311	O31	0.961400	0.214900	0.527600
O321	O32	0.721200	0.251600	0.496500
N81	N8	0.831800	0.407600	0.889100
C691	C69	0.739200	0.454800	0.839500
H631	H63	0.627200	0.449700	0.810800
C701	C70	0.801800	0.510100	0.829200
H641	H64	0.732200	0.541500	0.793900
C711	C71	0.970500	0.520100	0.871300
C721	C72	0.063600	0.470900	0.920900
H651	H65	0.175800	0.474900	0.950200
C731	C73	0.990600	0.411900	0.928800
H661	H66	0.055200	0.378400	0.961200
C741	C74	0.040000	0.581700	0.857300
H671	H67	0.156800	0.581100	0.893800
H681	H68	0.998300	0.616200	0.877500
C751	C75	0.002700	0.593300	0.767000
H691	H69	0.034600	0.556200	0.746500
H701	H70	0.885600	0.596200	0.732700
C761	C76	0.070200	0.648000	0.742100
C771	C77	0.963700	0.680800	0.668400
H711	H71	0.854100	0.670600	0.638600
C781	C78	0.226900	0.666900	0.786200
H721	H72	0.299500	0.647400	0.838800
C791	C79	0.872900	0.250100	0.544700
C801	C80	0.951500	0.289400	0.629600
H731	H73	0.932200	0.265500	0.672600
C811	C81	0.131400	0.293200	0.669900
H741	H74	0.176200	0.251100	0.681800
H751	H75	0.159900	0.312700	0.628000
C821	C82	0.206800	0.331000	0.756500
H761	H76	0.173400	0.310000	0.796100
C831	C83	0.393200	0.330900	0.805300
C841	C84	0.134200	0.396800	0.741000
H771	H77	0.176700	0.417000	0.799200
C851	C85	0.948600	0.391400	0.703000
H781	H78	0.902700	0.433300	0.690000
H791	H79	0.926400	0.373800	0.748300
C861	C86	0.862600	0.351700	0.619400
H801	H80	0.755700	0.341300	0.613000
C871	C87	0.187200	0.437500	0.684200
C881	C88	0.833600	0.388900	0.537600
