data_YOPQEB_clean_PM
_symmetry_space_group_name_H-M	'P1'
_cell_length_a	9.142800
_cell_length_b	16.012900
_cell_length_c	15.132400
_cell_angle_alpha	90.000000
_cell_angle_beta	93.151000
_cell_angle_gamma	90.000000
_symmetry_Int_Tables_number 1

loop_
_symmetry_equiv_pos_as_xyz
'x,y,z'

loop_
_atom_site_label
_atom_site_type_symbol
_atom_site_fract_x
_atom_site_fract_y
_atom_site_fract_z
Co11	Co1	0.390540	0.365260	0.664640
Co21	Co2	0.469070	0.142190	0.707950
O11	O1	0.564250	0.198540	0.602080
O21	O2	0.589250	0.337270	0.620830
O31	O3	0.153500	0.366570	0.654180
O41	O4	0.279100	0.321310	0.547100
O51	O5	0.927400	0.123640	0.302860
O61	O6	0.873690	0.248210	0.252510
O71	O7	0.456600	0.975700	0.333580
O81	O8	0.299600	0.037560	0.236260
H11	H1	0.267200	0.990100	0.229700
O91	O9	0.160970	0.324660	0.283060
O101	O10	0.341100	0.414720	0.315210
N11	N1	0.279500	0.111450	0.624800
C11	C1	0.625700	0.266780	0.590510
C21	C2	0.762100	0.266850	0.538250
C31	C3	0.891200	0.297870	0.579630
H21	H2	0.889200	0.322200	0.635400
C41	C4	0.022700	0.292670	0.538150
C51	C5	0.159000	0.329360	0.582200
C61	C6	0.025900	0.255740	0.455020
H31	H3	0.114900	0.248300	0.429000
C71	C7	0.896100	0.229960	0.410670
C81	C8	0.900700	0.198980	0.316980
C91	C9	0.761700	0.235500	0.451360
C101	C10	0.619000	0.217050	0.401920
C111	C11	0.578700	0.136570	0.374760
H41	H4	0.641500	0.091800	0.386900
C121	C12	0.443800	0.123590	0.329350
C131	C13	0.400500	0.037960	0.298950
C141	C14	0.348500	0.189880	0.310200
H51	H5	0.258200	0.180300	0.280600
C151	C15	0.389300	0.270320	0.335630
C161	C16	0.524000	0.283200	0.381880
H61	H6	0.550700	0.337000	0.399600
C171	C17	0.288600	0.341510	0.309400
C181	C18	0.300800	0.080600	0.544550
H71	H7	0.391900	0.088300	0.521300
C191	C19	0.194600	0.037800	0.494070
H81	H8	0.215900	0.017400	0.438700
C201	C20	0.057200	0.025120	0.525260
C211	C21	0.032300	0.060600	0.606900
H91	H9	0.940500	0.056300	0.630100
C221	C22	0.144600	0.102400	0.653600
H101	H10	0.125000	0.125500	0.708100
Co31	Co3	0.109460	0.865260	0.835360
Co41	Co4	0.030930	0.642190	0.792050
O111	O11	0.935750	0.698540	0.897920
O121	O12	0.910750	0.837270	0.879170
O131	O13	0.346500	0.866570	0.845820
O141	O14	0.220900	0.821310	0.952900
O151	O15	0.572600	0.623640	0.197140
O161	O16	0.626310	0.748210	0.247490
O171	O17	0.043400	0.475700	0.166420
O181	O18	0.200400	0.537560	0.263740
H111	H11	0.232800	0.490100	0.270300
O191	O19	0.339030	0.824660	0.216940
O201	O20	0.158900	0.914720	0.184790
N21	N2	0.220500	0.611450	0.875200
C231	C23	0.874300	0.766780	0.909490
C241	C24	0.737900	0.766850	0.961750
C251	C25	0.608800	0.797870	0.920370
H121	H12	0.610800	0.822200	0.864600
C261	C26	0.477300	0.792670	0.961850
C271	C27	0.341000	0.829360	0.917800
C281	C28	0.474100	0.755740	0.044980
H131	H13	0.385100	0.748300	0.071000
C291	C29	0.603900	0.729960	0.089330
C301	C30	0.599300	0.698980	0.183020
C311	C31	0.738300	0.735500	0.048640
C321	C32	0.881000	0.717050	0.098080
C331	C33	0.921300	0.636570	0.125240
H141	H14	0.858500	0.591800	0.113100
C341	C34	0.056200	0.623590	0.170650
C351	C35	0.099500	0.537960	0.201050
C361	C36	0.151500	0.689880	0.189800
H151	H15	0.241800	0.680300	0.219400
C371	C37	0.110700	0.770320	0.164370
C381	C38	0.976000	0.783200	0.118120
H161	H16	0.949300	0.837000	0.100400
C391	C39	0.211400	0.841510	0.190600
C401	C40	0.199200	0.580600	0.955450
H171	H17	0.108100	0.588300	0.978700
C411	C41	0.305400	0.537800	0.005930
H181	H18	0.284100	0.517400	0.061300
C421	C42	0.442800	0.525120	0.974740
C431	C43	0.467700	0.560600	0.893100
H191	H19	0.559500	0.556300	0.869900
C441	C44	0.355400	0.602400	0.846400
H201	H20	0.375000	0.625500	0.791900
Co51	Co5	0.609460	0.634740	0.335360
Co61	Co6	0.530930	0.857810	0.292050
O211	O21	0.435750	0.801460	0.397920
O221	O22	0.410750	0.662730	0.379170
O231	O23	0.846500	0.633430	0.345820
O241	O24	0.720900	0.678690	0.452900
O251	O25	0.072600	0.876360	0.697140
O261	O26	0.126310	0.751790	0.747490
O271	O27	0.543400	0.024300	0.666420
O281	O28	0.700400	0.962440	0.763740
H211	H21	0.732800	0.009900	0.770300
O291	O29	0.839030	0.675340	0.716940
O301	O30	0.658900	0.585280	0.684790
N31	N3	0.720500	0.888550	0.375200
C451	C45	0.374300	0.733220	0.409490
C461	C46	0.237900	0.733150	0.461750
C471	C47	0.108800	0.702130	0.420370
H221	H22	0.110800	0.677800	0.364600
C481	C48	0.977300	0.707330	0.461850
C491	C49	0.841000	0.670640	0.417800
C501	C50	0.974100	0.744260	0.544980
H231	H23	0.885100	0.751700	0.571000
C511	C51	0.103900	0.770040	0.589330
C521	C52	0.099300	0.801020	0.683020
C531	C53	0.238300	0.764500	0.548640
C541	C54	0.381000	0.782950	0.598080
C551	C55	0.421300	0.863430	0.625240
H241	H24	0.358500	0.908200	0.613100
C561	C56	0.556200	0.876410	0.670650
C571	C57	0.599500	0.962040	0.701050
C581	C58	0.651500	0.810120	0.689800
H251	H25	0.741800	0.819700	0.719400
C591	C59	0.610700	0.729680	0.664370
C601	C60	0.476000	0.716800	0.618120
H261	H26	0.449300	0.663000	0.600400
C611	C61	0.711400	0.658490	0.690600
C621	C62	0.699200	0.919400	0.455450
H271	H27	0.608100	0.911700	0.478700
C631	C63	0.805400	0.962200	0.505930
H281	H28	0.784100	0.982600	0.561300
C641	C64	0.942800	0.974880	0.474740
C651	C65	0.967700	0.939400	0.393100
H291	H29	0.059500	0.943700	0.369900
C661	C66	0.855400	0.897600	0.346400
H301	H30	0.875000	0.874500	0.291900
Co71	Co7	0.890540	0.134740	0.164640
Co81	Co8	0.969070	0.357810	0.207950
O311	O31	0.064250	0.301460	0.102080
O321	O32	0.089250	0.162730	0.120830
O331	O33	0.653500	0.133430	0.154180
O341	O34	0.779100	0.178690	0.047100
O351	O35	0.427400	0.376360	0.802860
O361	O36	0.373690	0.251790	0.752510
O371	O37	0.956600	0.524300	0.833580
O381	O38	0.799600	0.462440	0.736260
H311	H31	0.767200	0.509900	0.729700
O391	O39	0.660970	0.175340	0.783060
O401	O40	0.841100	0.085280	0.815210
N41	N4	0.779500	0.388550	0.124800
C671	C67	0.125700	0.233220	0.090510
C681	C68	0.262100	0.233150	0.038250
C691	C69	0.391200	0.202130	0.079630
H321	H32	0.389200	0.177800	0.135400
C701	C70	0.522700	0.207330	0.038150
C711	C71	0.659000	0.170640	0.082200
C721	C72	0.525900	0.244260	0.955020
H331	H33	0.614900	0.251700	0.929000
C731	C73	0.396100	0.270040	0.910670
C741	C74	0.400700	0.301020	0.816980
C751	C75	0.261700	0.264500	0.951360
C761	C76	0.119000	0.282950	0.901920
C771	C77	0.078700	0.363430	0.874760
H341	H34	0.141500	0.408200	0.886900
C781	C78	0.943800	0.376410	0.829350
C791	C79	0.900500	0.462040	0.798950
C801	C80	0.848500	0.310120	0.810200
H351	H35	0.758200	0.319700	0.780600
C811	C81	0.889300	0.229680	0.835630
C821	C82	0.024000	0.216800	0.881880
H361	H36	0.050700	0.163000	0.899600
C831	C83	0.788600	0.158490	0.809400
C841	C84	0.800800	0.419400	0.044550
H371	H37	0.891900	0.411700	0.021300
C851	C85	0.694600	0.462200	0.994070
H381	H38	0.715900	0.482600	0.938700
C861	C86	0.557200	0.474880	0.025260
C871	C87	0.532300	0.439400	0.106900
H391	H39	0.440500	0.443700	0.130100
C881	C88	0.644600	0.397600	0.153600
H401	H40	0.625000	0.374500	0.208100
