data_YORGOD_clean_PM
_symmetry_space_group_name_H-M	'P1'
_cell_length_a	15.637000
_cell_length_b	15.691000
_cell_length_c	16.291000
_cell_angle_alpha	90.097000
_cell_angle_beta	90.067000
_cell_angle_gamma	90.015000
_symmetry_Int_Tables_number 1

loop_
_symmetry_equiv_pos_as_xyz
'x,y,z'

loop_
_atom_site_label
_atom_site_type_symbol
_atom_site_fract_x
_atom_site_fract_y
_atom_site_fract_z
Zn11	Zn1	0.125290	0.000070	0.464070
Zn21	Zn2	0.374700	0.999880	0.964160
O11	O1	0.373600	0.998900	0.088860
O21	O2	0.126400	0.000400	0.587810
O31	O3	0.240000	0.999300	0.958800
O41	O4	0.260400	0.999600	0.459300
O51	O5	0.197500	0.000800	0.339460
O61	O6	0.302540	0.000500	0.839000
C11	C1	0.067100	0.999700	0.720000
C21	C2	0.434100	0.998500	0.219800
O71	O7	0.987100	0.999500	0.596750
O81	O8	0.512100	0.000700	0.097450
C31	C3	0.355000	0.000300	0.256900
H11	H1	0.305500	0.001900	0.225200
C41	C4	0.441700	0.001200	0.128300
C51	C5	0.145100	0.998400	0.758600
H21	H2	0.194700	0.995800	0.727300
C61	C6	0.077500	0.999400	0.890000
H31	H3	0.081500	0.997800	0.946900
C71	C7	0.421900	0.000800	0.389500
H41	H4	0.418200	0.001700	0.446500
O91	O9	0.928700	0.004200	0.902300
C81	C8	0.059100	0.999100	0.628400
O101	O10	0.570900	0.000200	0.402700
C91	C9	0.262800	0.000000	0.384000
C101	C10	0.236800	0.999100	0.884400
C111	C11	0.990400	0.000800	0.766500
H51	H5	0.937200	0.001700	0.740900
C121	C12	0.151200	0.000700	0.841700
C131	C13	0.349700	0.999800	0.342900
C141	C14	0.509100	0.999000	0.265100
H61	H6	0.562200	0.998400	0.239400
C151	C15	0.502600	0.000300	0.350700
C161	C16	0.997600	0.000600	0.851500
N11	N1	0.380800	0.131800	0.961400
N21	N2	0.119100	0.870500	0.460800
N31	N3	0.379200	0.866300	0.960600
N41	N4	0.119900	0.131200	0.461900
C171	C17	0.117700	0.682100	0.459700
C181	C18	0.383500	0.684400	0.959800
C191	C19	0.117200	0.589800	0.459400
C201	C20	0.382100	0.593700	0.959700
C211	C21	0.352500	0.812800	0.024800
H71	H7	0.332600	0.839700	0.072000
C221	C22	0.352300	0.183800	0.025100
H81	H8	0.331700	0.156400	0.071700
C231	C23	0.352700	0.727500	0.025700
H91	H9	0.331900	0.698100	0.071000
C241	C24	0.149900	0.812600	0.522900
H101	H10	0.175900	0.837800	0.568100
C251	C25	0.146000	0.727200	0.523900
H111	H11	0.163600	0.698400	0.570900
C261	C26	0.148300	0.182900	0.523600
H121	H12	0.169900	0.155900	0.570000
C271	C27	0.148300	0.271100	0.524900
H131	H13	0.169500	0.300000	0.570500
C281	C28	0.086000	0.179600	0.399300
H141	H14	0.061900	0.150500	0.355200
C291	C29	0.414500	0.818900	0.897800
H151	H15	0.439100	0.847600	0.853800
C301	C30	0.087600	0.738100	0.395900
H161	H16	0.064100	0.712600	0.349500
C311	C31	0.090200	0.827200	0.396900
H171	H17	0.071000	0.856900	0.351200
C321	C32	0.415300	0.731000	0.896900
H181	H18	0.438200	0.702900	0.851700
C331	C33	0.411600	0.184300	0.898400
H191	H19	0.428200	0.156300	0.850700
C341	C34	0.117800	0.315400	0.460400
C351	C35	0.382800	0.318600	0.959300
C361	C36	0.382400	0.409900	0.958700
C371	C37	0.118400	0.408400	0.459400
C381	C38	0.351300	0.269000	0.026300
H201	H20	0.329500	0.296800	0.072200
C391	C39	0.420000	0.266300	0.897400
H211	H21	0.451100	0.291600	0.855300
C401	C40	0.084600	0.267500	0.396300
H221	H22	0.061200	0.294800	0.350900
C411	C41	0.369700	0.455000	0.026200
H231	H23	0.362200	0.425700	0.075200
C421	C42	0.401400	0.463600	0.892500
H241	H24	0.408100	0.438500	0.841200
C431	C43	0.098100	0.541000	0.393400
H251	H25	0.081700	0.568700	0.345500
C441	C44	0.101000	0.456200	0.391700
H261	H26	0.090700	0.428500	0.342200
C451	C45	0.410300	0.546000	0.897500
H271	H27	0.438200	0.573600	0.854700
C461	C46	0.131200	0.457800	0.525800
H281	H28	0.137500	0.430900	0.576200
C471	C47	0.366700	0.543100	0.028600
H291	H29	0.354000	0.569800	0.078100
C481	C48	0.135400	0.538200	0.524500
C491	C49	0.650900	0.059400	0.370500
H301	H30	0.696700	0.048100	0.409300
H311	H31	0.668600	0.032800	0.319500
C501	C50	0.730600	0.184200	0.308800
H321	H32	0.769500	0.142500	0.292900
C511	C51	0.657800	0.161500	0.352600
C521	C52	0.599600	0.223700	0.376400
H331	H33	0.550900	0.208600	0.405700
C531	C53	0.614200	0.308600	0.356600
H341	H34	0.575300	0.350200	0.372500
C541	C54	0.687000	0.331300	0.312800
H351	H35	0.696800	0.388000	0.299500
C551	C55	0.745200	0.269000	0.289000
H361	H36	0.793900	0.284200	0.259700
Zn31	Zn3	0.874710	0.999930	0.535930
Zn41	Zn4	0.625300	0.000120	0.035840
O111	O11	0.626400	0.001100	0.911140
O121	O12	0.873600	0.999600	0.412190
O131	O13	0.760000	0.000700	0.041200
O141	O14	0.739600	0.000400	0.540700
O151	O15	0.802500	0.999200	0.660540
O161	O16	0.697460	0.999500	0.161000
C561	C56	0.932900	0.000300	0.280000
C571	C57	0.565900	0.001500	0.780200
O171	O17	0.012900	0.000500	0.403250
O181	O18	0.487900	0.999300	0.902550
C581	C58	0.645000	0.999700	0.743100
H371	H37	0.694500	0.998100	0.774800
C591	C59	0.558300	0.998800	0.871700
C601	C60	0.854900	0.001600	0.241400
H381	H38	0.805300	0.004200	0.272700
C611	C61	0.922500	0.000600	0.110000
H391	H39	0.918500	0.002200	0.053100
C621	C62	0.578100	0.999200	0.610500
H401	H40	0.581800	0.998300	0.553500
O191	O19	0.071300	0.995800	0.097700
C631	C63	0.940900	0.000900	0.371600
O201	O20	0.429100	0.999800	0.597300
C641	C64	0.737200	0.000000	0.616000
C651	C65	0.763200	0.000900	0.115600
C661	C66	0.009600	0.999200	0.233500
H411	H41	0.062800	0.998300	0.259100
C671	C67	0.848800	0.999300	0.158300
C681	C68	0.650300	0.000200	0.657100
C691	C69	0.490900	0.001000	0.734900
H421	H42	0.437800	0.001600	0.760600
C701	C70	0.497400	0.999700	0.649300
C711	C71	0.002400	0.999400	0.148500
N51	N5	0.619200	0.868200	0.038600
N61	N6	0.880900	0.129500	0.539200
N71	N7	0.620800	0.133700	0.039400
N81	N8	0.880100	0.868800	0.538100
C721	C72	0.882300	0.317900	0.540300
C731	C73	0.616500	0.315600	0.040200
C741	C74	0.882800	0.410200	0.540600
C751	C75	0.617900	0.406300	0.040300
C761	C76	0.647500	0.187200	0.975200
H431	H43	0.667400	0.160300	0.928000
C771	C77	0.647700	0.816200	0.974900
H441	H44	0.668300	0.843600	0.928300
C781	C78	0.647300	0.272500	0.974300
H451	H45	0.668100	0.301900	0.929000
C791	C79	0.850100	0.187400	0.477100
H461	H46	0.824100	0.162200	0.431900
C801	C80	0.854000	0.272800	0.476100
H471	H47	0.836400	0.301600	0.429100
C811	C81	0.851700	0.817100	0.476400
H481	H48	0.830100	0.844100	0.430000
C821	C82	0.851700	0.728900	0.475100
H491	H49	0.830500	0.700000	0.429500
C831	C83	0.914000	0.820400	0.600700
H501	H50	0.938100	0.849500	0.644800
C841	C84	0.585500	0.181100	0.102200
H511	H51	0.560900	0.152400	0.146200
C851	C85	0.912400	0.261900	0.604100
H521	H52	0.935900	0.287400	0.650500
C861	C86	0.909800	0.172800	0.603100
H531	H53	0.929000	0.143100	0.648800
C871	C87	0.584700	0.269000	0.103100
H541	H54	0.561800	0.297100	0.148300
C881	C88	0.588400	0.815700	0.101600
H551	H55	0.571800	0.843700	0.149300
C891	C89	0.882200	0.684600	0.539600
C901	C90	0.617200	0.681400	0.040700
C911	C91	0.617600	0.590100	0.041300
C921	C92	0.881600	0.591600	0.540600
C931	C93	0.648700	0.731000	0.973700
H561	H56	0.670500	0.703200	0.927800
C941	C94	0.580000	0.733700	0.102600
H571	H57	0.548900	0.708400	0.144700
C951	C95	0.915400	0.732500	0.603700
H581	H58	0.938800	0.705200	0.649100
C961	C96	0.630300	0.545000	0.973800
H591	H59	0.637800	0.574300	0.924800
C971	C97	0.598600	0.536400	0.107500
H601	H60	0.591900	0.561500	0.158800
C981	C98	0.901900	0.459000	0.606600
H611	H61	0.918300	0.431300	0.654500
C991	C99	0.899000	0.543800	0.608300
H621	H62	0.909300	0.571500	0.657800
C1001	C100	0.589700	0.454000	0.102500
H631	H63	0.561800	0.426400	0.145300
C1011	C101	0.868800	0.542200	0.474200
H641	H64	0.862500	0.569100	0.423800
C1021	C102	0.633300	0.456900	0.971400
H651	H65	0.646000	0.430200	0.921900
C1031	C103	0.864600	0.461800	0.475500
C1041	C104	0.349100	0.940600	0.629500
H661	H66	0.303300	0.951900	0.590700
H671	H67	0.331400	0.967200	0.680500
C1051	C105	0.269400	0.815800	0.691200
H681	H68	0.230500	0.857500	0.707100
C1061	C106	0.342200	0.838500	0.647400
C1071	C107	0.400400	0.776300	0.623600
H691	H69	0.449100	0.791400	0.594300
C1081	C108	0.385800	0.691400	0.643400
H701	H70	0.424700	0.649800	0.627500
C1091	C109	0.313000	0.668700	0.687200
H711	H71	0.303200	0.612000	0.700500
C1101	C110	0.254800	0.731000	0.711000
H721	H72	0.206100	0.715800	0.740300
