data_YORNIE_clean_PM
_symmetry_space_group_name_H-M	'P1'
_cell_length_a	25.645000
_cell_length_b	11.555000
_cell_length_c	7.012000
_cell_angle_alpha	90.000000
_cell_angle_beta	99.982000
_cell_angle_gamma	90.000000
_symmetry_Int_Tables_number 1

loop_
_symmetry_equiv_pos_as_xyz
'x,y,z'

loop_
_atom_site_label
_atom_site_type_symbol
_atom_site_fract_x
_atom_site_fract_y
_atom_site_fract_z
O11	O1	0.568680	0.975680	0.724900
C11	C1	0.569410	0.076300	0.655800
C21	C2	0.656860	0.117000	0.849000
C31	C3	0.620420	0.140900	0.700200
C41	C4	0.723000	0.273400	0.815700
H11	H1	0.705400	0.289400	0.691100
C51	C5	0.705250	0.183900	0.921600
C61	C6	0.733240	0.161400	0.104800
H21	H2	0.722400	0.101000	0.176500
O21	O2	0.530950	0.127640	0.556900
H31	H3	0.656600	0.063000	0.907000
H41	H4	0.625000	0.200000	0.635000
O31	O3	0.068680	0.475680	0.724900
C71	C7	0.069410	0.576300	0.655800
C81	C8	0.156860	0.617000	0.849000
C91	C9	0.120420	0.640900	0.700200
C101	C10	0.223000	0.773400	0.815700
H51	H5	0.205400	0.789400	0.691100
C111	C11	0.205250	0.683900	0.921600
C121	C12	0.233240	0.661400	0.104800
H61	H6	0.222400	0.601000	0.176500
O41	O4	0.030950	0.627640	0.556900
H71	H7	0.156600	0.563000	0.907000
H81	H8	0.125000	0.700000	0.635000
O51	O5	0.431320	0.975680	0.775100
C131	C13	0.430590	0.076300	0.844200
C141	C14	0.343140	0.117000	0.651000
C151	C15	0.379580	0.140900	0.799800
C161	C16	0.277000	0.273400	0.684300
H91	H9	0.294600	0.289400	0.808900
C171	C17	0.294750	0.183900	0.578400
C181	C18	0.266760	0.161400	0.395200
H101	H10	0.277600	0.101000	0.323500
O61	O6	0.469050	0.127640	0.943100
H111	H11	0.343400	0.063000	0.593000
H121	H12	0.375000	0.200000	0.865000
O71	O7	0.931320	0.475680	0.775100
C191	C19	0.930590	0.576300	0.844200
C201	C20	0.843140	0.617000	0.651000
C211	C21	0.879580	0.640900	0.799800
C221	C22	0.777000	0.773400	0.684300
H131	H13	0.794600	0.789400	0.808900
C231	C23	0.794750	0.683900	0.578400
C241	C24	0.766760	0.661400	0.395200
H141	H14	0.777600	0.601000	0.323500
O81	O8	0.969050	0.627640	0.943100
H151	H15	0.843400	0.563000	0.593000
H161	H16	0.875000	0.700000	0.865000
O91	O9	0.431320	0.024320	0.275100
C251	C25	0.430590	0.923700	0.344200
C261	C26	0.343140	0.883000	0.151000
C271	C27	0.379580	0.859100	0.299800
C281	C28	0.277000	0.726600	0.184300
H171	H17	0.294600	0.710600	0.308900
C291	C29	0.294750	0.816100	0.078400
C301	C30	0.266760	0.838600	0.895200
H181	H18	0.277600	0.899000	0.823500
O101	O10	0.469050	0.872360	0.443100
H191	H19	0.343400	0.937000	0.093000
H201	H20	0.375000	0.800000	0.365000
O111	O11	0.931320	0.524320	0.275100
C311	C31	0.930590	0.423700	0.344200
C321	C32	0.843140	0.383000	0.151000
C331	C33	0.879580	0.359100	0.299800
C341	C34	0.777000	0.226600	0.184300
H211	H21	0.794600	0.210600	0.308900
C351	C35	0.794750	0.316100	0.078400
C361	C36	0.766760	0.338600	0.895200
H221	H22	0.777600	0.399000	0.823500
O121	O12	0.969050	0.372360	0.443100
H231	H23	0.843400	0.437000	0.093000
H241	H24	0.875000	0.300000	0.365000
O131	O13	0.568680	0.024320	0.224900
C371	C37	0.569410	0.923700	0.155800
C381	C38	0.656860	0.883000	0.349000
C391	C39	0.620420	0.859100	0.200200
C401	C40	0.723000	0.726600	0.315700
H251	H25	0.705400	0.710600	0.191100
C411	C41	0.705250	0.816100	0.421600
C421	C42	0.733240	0.838600	0.604800
H261	H26	0.722400	0.899000	0.676500
O141	O14	0.530950	0.872360	0.056900
H271	H27	0.656600	0.937000	0.407000
H281	H28	0.625000	0.800000	0.135000
O151	O15	0.068680	0.524320	0.224900
C431	C43	0.069410	0.423700	0.155800
C441	C44	0.156860	0.383000	0.349000
C451	C45	0.120420	0.359100	0.200200
C461	C46	0.223000	0.226600	0.315700
H291	H29	0.205400	0.210600	0.191100
C471	C47	0.205250	0.316100	0.421600
C481	C48	0.233240	0.338600	0.604800
H301	H30	0.222400	0.399000	0.676500
O161	O16	0.030950	0.372360	0.056900
H311	H31	0.156600	0.437000	0.407000
H321	H32	0.125000	0.300000	0.135000
Co11	Co1	0.500000	0.879660	0.750000
Co21	Co2	0.000000	0.379660	0.750000
Co31	Co3	0.500000	0.120340	0.250000
Co41	Co4	0.000000	0.620340	0.250000
