data_YOTRUW_clean_PM
_symmetry_space_group_name_H-M	'P1'
_cell_length_a	10.725000
_cell_length_b	15.204000
_cell_length_c	17.354100
_cell_angle_alpha	90.000000
_cell_angle_beta	99.413000
_cell_angle_gamma	90.000000
_symmetry_Int_Tables_number 1

loop_
_symmetry_equiv_pos_as_xyz
'x,y,z'

loop_
_atom_site_label
_atom_site_type_symbol
_atom_site_fract_x
_atom_site_fract_y
_atom_site_fract_z
Ba11	Ba1	0.179070	0.027790	0.443260
V11	V1	0.190380	0.408540	0.342750
O11	O1	0.008600	0.376200	0.341100
O21	O2	0.840400	0.400600	0.399500
O31	O3	0.123900	0.512500	0.412900
O41	O4	0.938400	0.567100	0.435100
O51	O5	0.026500	0.074100	0.164200
O61	O6	0.145500	0.968500	0.125400
O71	O7	0.217700	0.106500	0.288400
O81	O8	0.331800	0.004400	0.239100
O91	O9	0.232600	0.347300	0.446400
O101	O10	0.156500	0.212100	0.414100
O111	O11	0.219200	0.328800	0.286200
O121	O12	0.049800	0.887000	0.499400
H11	H1	0.025000	0.855000	0.463000
H21	H2	0.090000	0.861000	0.531000
C11	C1	0.943200	0.421500	0.382400
C21	C2	0.005100	0.510000	0.412700
C31	C3	0.124900	0.031300	0.171300
C41	C4	0.233400	0.050200	0.239900
C51	C5	0.216100	0.265600	0.459200
Ba21	Ba2	0.679070	0.527790	0.443260
V21	V2	0.690380	0.908540	0.342750
O131	O13	0.508600	0.876200	0.341100
O141	O14	0.340400	0.900600	0.399500
O151	O15	0.623900	0.012500	0.412900
O161	O16	0.438400	0.067100	0.435100
O171	O17	0.526500	0.574100	0.164200
O181	O18	0.645500	0.468500	0.125400
O191	O19	0.717700	0.606500	0.288400
O201	O20	0.831800	0.504400	0.239100
O211	O21	0.732600	0.847300	0.446400
O221	O22	0.656500	0.712100	0.414100
O231	O23	0.719200	0.828800	0.286200
O241	O24	0.549800	0.387000	0.499400
H31	H3	0.525000	0.355000	0.463000
H41	H4	0.590000	0.361000	0.531000
C61	C6	0.443200	0.921500	0.382400
C71	C7	0.505100	0.010000	0.412700
C81	C8	0.624900	0.531300	0.171300
C91	C9	0.733400	0.550200	0.239900
C101	C10	0.716100	0.765600	0.459200
Ba31	Ba3	0.820930	0.027790	0.056740
V31	V3	0.809620	0.408540	0.157250
O251	O25	0.991400	0.376200	0.158900
O261	O26	0.159600	0.400600	0.100500
O271	O27	0.876100	0.512500	0.087100
O281	O28	0.061600	0.567100	0.064900
O291	O29	0.973500	0.074100	0.335800
O301	O30	0.854500	0.968500	0.374600
O311	O31	0.782300	0.106500	0.211600
O321	O32	0.668200	0.004400	0.260900
O331	O33	0.767400	0.347300	0.053600
O341	O34	0.843500	0.212100	0.085900
O351	O35	0.780800	0.328800	0.213800
O361	O36	0.950200	0.887000	0.000600
H51	H5	0.975000	0.855000	0.037000
H61	H6	0.910000	0.861000	0.969000
C111	C11	0.056800	0.421500	0.117600
C121	C12	0.994900	0.510000	0.087300
C131	C13	0.875100	0.031300	0.328700
C141	C14	0.766600	0.050200	0.260100
C151	C15	0.783900	0.265600	0.040800
Ba41	Ba4	0.320930	0.527790	0.056740
V41	V4	0.309620	0.908540	0.157250
O371	O37	0.491400	0.876200	0.158900
O381	O38	0.659600	0.900600	0.100500
O391	O39	0.376100	0.012500	0.087100
O401	O40	0.561600	0.067100	0.064900
O411	O41	0.473500	0.574100	0.335800
O421	O42	0.354500	0.468500	0.374600
O431	O43	0.282300	0.606500	0.211600
O441	O44	0.168200	0.504400	0.260900
O451	O45	0.267400	0.847300	0.053600
O461	O46	0.343500	0.712100	0.085900
O471	O47	0.280800	0.828800	0.213800
O481	O48	0.450200	0.387000	0.000600
H71	H7	0.475000	0.355000	0.037000
H81	H8	0.410000	0.361000	0.969000
C161	C16	0.556800	0.921500	0.117600
C171	C17	0.494900	0.010000	0.087300
C181	C18	0.375100	0.531300	0.328700
C191	C19	0.266600	0.550200	0.260100
C201	C20	0.283900	0.765600	0.040800
Ba51	Ba5	0.820930	0.972210	0.556740
V51	V5	0.809620	0.591460	0.657250
O491	O49	0.991400	0.623800	0.658900
O501	O50	0.159600	0.599400	0.600500
O511	O51	0.876100	0.487500	0.587100
O521	O52	0.061600	0.432900	0.564900
O531	O53	0.973500	0.925900	0.835800
O541	O54	0.854500	0.031500	0.874600
O551	O55	0.782300	0.893500	0.711600
O561	O56	0.668200	0.995600	0.760900
O571	O57	0.767400	0.652700	0.553600
O581	O58	0.843500	0.787900	0.585900
O591	O59	0.780800	0.671200	0.713800
O601	O60	0.950200	0.113000	0.500600
H91	H9	0.975000	0.145000	0.537000
H101	H10	0.910000	0.139000	0.469000
C211	C21	0.056800	0.578500	0.617600
C221	C22	0.994900	0.490000	0.587300
C231	C23	0.875100	0.968700	0.828700
C241	C24	0.766600	0.949800	0.760100
C251	C25	0.783900	0.734400	0.540800
Ba61	Ba6	0.320930	0.472210	0.556740
V61	V6	0.309620	0.091460	0.657250
O611	O61	0.491400	0.123800	0.658900
O621	O62	0.659600	0.099400	0.600500
O631	O63	0.376100	0.987500	0.587100
O641	O64	0.561600	0.932900	0.564900
O651	O65	0.473500	0.425900	0.835800
O661	O66	0.354500	0.531500	0.874600
O671	O67	0.282300	0.393500	0.711600
O681	O68	0.168200	0.495600	0.760900
O691	O69	0.267400	0.152700	0.553600
O701	O70	0.343500	0.287900	0.585900
O711	O71	0.280800	0.171200	0.713800
O721	O72	0.450200	0.613000	0.500600
H111	H11	0.475000	0.645000	0.537000
H121	H12	0.410000	0.639000	0.469000
C261	C26	0.556800	0.078500	0.617600
C271	C27	0.494900	0.990000	0.587300
C281	C28	0.375100	0.468700	0.828700
C291	C29	0.266600	0.449800	0.760100
C301	C30	0.283900	0.234400	0.540800
Ba71	Ba7	0.179070	0.972210	0.943260
V71	V7	0.190380	0.591460	0.842750
O731	O73	0.008600	0.623800	0.841100
O741	O74	0.840400	0.599400	0.899500
O751	O75	0.123900	0.487500	0.912900
O761	O76	0.938400	0.432900	0.935100
O771	O77	0.026500	0.925900	0.664200
O781	O78	0.145500	0.031500	0.625400
O791	O79	0.217700	0.893500	0.788400
O801	O80	0.331800	0.995600	0.739100
O811	O81	0.232600	0.652700	0.946400
O821	O82	0.156500	0.787900	0.914100
O831	O83	0.219200	0.671200	0.786200
O841	O84	0.049800	0.113000	0.999400
H131	H13	0.025000	0.145000	0.963000
H141	H14	0.090000	0.139000	0.031000
C311	C31	0.943200	0.578500	0.882400
C321	C32	0.005100	0.490000	0.912700
C331	C33	0.124900	0.968700	0.671300
C341	C34	0.233400	0.949800	0.739900
C351	C35	0.216100	0.734400	0.959200
Ba81	Ba8	0.679070	0.472210	0.943260
V81	V8	0.690380	0.091460	0.842750
O851	O85	0.508600	0.123800	0.841100
O861	O86	0.340400	0.099400	0.899500
O871	O87	0.623900	0.987500	0.912900
O881	O88	0.438400	0.932900	0.935100
O891	O89	0.526500	0.425900	0.664200
O901	O90	0.645500	0.531500	0.625400
O911	O91	0.717700	0.393500	0.788400
O921	O92	0.831800	0.495600	0.739100
O931	O93	0.732600	0.152700	0.946400
O941	O94	0.656500	0.287900	0.914100
O951	O95	0.719200	0.171200	0.786200
O961	O96	0.549800	0.613000	0.999400
H151	H15	0.525000	0.645000	0.963000
H161	H16	0.590000	0.639000	0.031000
C361	C36	0.443200	0.078500	0.882400
C371	C37	0.505100	0.990000	0.912700
C381	C38	0.624900	0.468700	0.671300
C391	C39	0.733400	0.449800	0.739900
C401	C40	0.716100	0.234400	0.959200
Ba91	Ba9	0.000000	0.220590	0.250000
Ba101	Ba10	0.500000	0.720590	0.250000
Ba111	Ba11	0.000000	0.779410	0.750000
Ba121	Ba12	0.500000	0.279410	0.750000
