data_YOTSAD_clean_PM
_symmetry_space_group_name_H-M	'P1'
_cell_length_a	10.235400
_cell_length_b	15.455000
_cell_length_c	17.536000
_cell_angle_alpha	90.000000
_cell_angle_beta	98.718000
_cell_angle_gamma	90.000000
_symmetry_Int_Tables_number 1

loop_
_symmetry_equiv_pos_as_xyz
'x,y,z'

loop_
_atom_site_label
_atom_site_type_symbol
_atom_site_fract_x
_atom_site_fract_y
_atom_site_fract_z
Ba11	Ba1	0.180600	0.033340	0.450550
V11	V1	0.195150	0.400970	0.340850
O11	O1	0.003620	0.372830	0.341020
O21	O2	0.822740	0.405200	0.392420
O31	O3	0.129680	0.505020	0.412160
O41	O4	0.939140	0.564330	0.434190
O51	O5	0.020630	0.073670	0.164610
O61	O6	0.133320	0.962250	0.129490
O71	O7	0.223500	0.103500	0.285060
O81	O8	0.333040	0.994400	0.239280
O91	O9	0.237010	0.343490	0.444360
O101	O10	0.158970	0.210160	0.414600
O111	O11	0.228430	0.320870	0.288770
O121	O12	0.061100	0.881670	0.499200
H11	H1	0.045000	0.845000	0.468000
H21	H2	0.105000	0.848000	0.531000
C11	C1	0.934800	0.421750	0.378770
C21	C2	0.006000	0.505890	0.411080
C31	C3	0.119100	0.027420	0.172770
C41	C4	0.235000	0.045270	0.238930
C51	C5	0.218900	0.263790	0.458810
Ba21	Ba2	0.680600	0.533340	0.450550
V21	V2	0.695150	0.900970	0.340850
O131	O13	0.503620	0.872830	0.341020
O141	O14	0.322740	0.905200	0.392420
O151	O15	0.629680	0.005020	0.412160
O161	O16	0.439140	0.064330	0.434190
O171	O17	0.520630	0.573670	0.164610
O181	O18	0.633320	0.462250	0.129490
O191	O19	0.723500	0.603500	0.285060
O201	O20	0.833040	0.494400	0.239280
O211	O21	0.737010	0.843490	0.444360
O221	O22	0.658970	0.710160	0.414600
O231	O23	0.728430	0.820870	0.288770
O241	O24	0.561100	0.381670	0.499200
H31	H3	0.545000	0.345000	0.468000
H41	H4	0.605000	0.348000	0.531000
C61	C6	0.434800	0.921750	0.378770
C71	C7	0.506000	0.005890	0.411080
C81	C8	0.619100	0.527420	0.172770
C91	C9	0.735000	0.545270	0.238930
C101	C10	0.718900	0.763790	0.458810
Ba31	Ba3	0.819400	0.033340	0.049450
V31	V3	0.804850	0.400970	0.159150
O251	O25	0.996380	0.372830	0.158980
O261	O26	0.177260	0.405200	0.107580
O271	O27	0.870320	0.505020	0.087840
O281	O28	0.060860	0.564330	0.065810
O291	O29	0.979370	0.073670	0.335390
O301	O30	0.866680	0.962250	0.370510
O311	O31	0.776500	0.103500	0.214940
O321	O32	0.666960	0.994400	0.260720
O331	O33	0.762990	0.343490	0.055640
O341	O34	0.841030	0.210160	0.085400
O351	O35	0.771570	0.320870	0.211230
O361	O36	0.938900	0.881670	0.000800
H51	H5	0.955000	0.845000	0.032000
H61	H6	0.895000	0.848000	0.969000
C111	C11	0.065200	0.421750	0.121230
C121	C12	0.994000	0.505890	0.088920
C131	C13	0.880900	0.027420	0.327230
C141	C14	0.765000	0.045270	0.261070
C151	C15	0.781100	0.263790	0.041190
Ba41	Ba4	0.319400	0.533340	0.049450
V41	V4	0.304850	0.900970	0.159150
O371	O37	0.496380	0.872830	0.158980
O381	O38	0.677260	0.905200	0.107580
O391	O39	0.370320	0.005020	0.087840
O401	O40	0.560860	0.064330	0.065810
O411	O41	0.479370	0.573670	0.335390
O421	O42	0.366680	0.462250	0.370510
O431	O43	0.276500	0.603500	0.214940
O441	O44	0.166960	0.494400	0.260720
O451	O45	0.262990	0.843490	0.055640
O461	O46	0.341030	0.710160	0.085400
O471	O47	0.271570	0.820870	0.211230
O481	O48	0.438900	0.381670	0.000800
H71	H7	0.455000	0.345000	0.032000
H81	H8	0.395000	0.348000	0.969000
C161	C16	0.565200	0.921750	0.121230
C171	C17	0.494000	0.005890	0.088920
C181	C18	0.380900	0.527420	0.327230
C191	C19	0.265000	0.545270	0.261070
C201	C20	0.281100	0.763790	0.041190
Ba51	Ba5	0.819400	0.966660	0.549450
V51	V5	0.804850	0.599030	0.659150
O491	O49	0.996380	0.627170	0.658980
O501	O50	0.177260	0.594800	0.607580
O511	O51	0.870320	0.494980	0.587840
O521	O52	0.060860	0.435670	0.565810
O531	O53	0.979370	0.926330	0.835390
O541	O54	0.866680	0.037750	0.870510
O551	O55	0.776500	0.896500	0.714940
O561	O56	0.666960	0.005600	0.760720
O571	O57	0.762990	0.656510	0.555640
O581	O58	0.841030	0.789840	0.585400
O591	O59	0.771570	0.679130	0.711230
O601	O60	0.938900	0.118330	0.500800
H91	H9	0.955000	0.155000	0.532000
H101	H10	0.895000	0.152000	0.469000
C211	C21	0.065200	0.578250	0.621230
C221	C22	0.994000	0.494110	0.588920
C231	C23	0.880900	0.972580	0.827230
C241	C24	0.765000	0.954730	0.761070
C251	C25	0.781100	0.736210	0.541190
Ba61	Ba6	0.319400	0.466660	0.549450
V61	V6	0.304850	0.099030	0.659150
O611	O61	0.496380	0.127170	0.658980
O621	O62	0.677260	0.094800	0.607580
O631	O63	0.370320	0.994980	0.587840
O641	O64	0.560860	0.935670	0.565810
O651	O65	0.479370	0.426330	0.835390
O661	O66	0.366680	0.537750	0.870510
O671	O67	0.276500	0.396500	0.714940
O681	O68	0.166960	0.505600	0.760720
O691	O69	0.262990	0.156510	0.555640
O701	O70	0.341030	0.289840	0.585400
O711	O71	0.271570	0.179130	0.711230
O721	O72	0.438900	0.618330	0.500800
H111	H11	0.455000	0.655000	0.532000
H121	H12	0.395000	0.652000	0.469000
C261	C26	0.565200	0.078250	0.621230
C271	C27	0.494000	0.994110	0.588920
C281	C28	0.380900	0.472580	0.827230
C291	C29	0.265000	0.454730	0.761070
C301	C30	0.281100	0.236210	0.541190
Ba71	Ba7	0.180600	0.966660	0.950550
V71	V7	0.195150	0.599030	0.840850
O731	O73	0.003620	0.627170	0.841020
O741	O74	0.822740	0.594800	0.892420
O751	O75	0.129680	0.494980	0.912160
O761	O76	0.939140	0.435670	0.934190
O771	O77	0.020630	0.926330	0.664610
O781	O78	0.133320	0.037750	0.629490
O791	O79	0.223500	0.896500	0.785060
O801	O80	0.333040	0.005600	0.739280
O811	O81	0.237010	0.656510	0.944360
O821	O82	0.158970	0.789840	0.914600
O831	O83	0.228430	0.679130	0.788770
O841	O84	0.061100	0.118330	0.999200
H131	H13	0.045000	0.155000	0.968000
H141	H14	0.105000	0.152000	0.031000
C311	C31	0.934800	0.578250	0.878770
C321	C32	0.006000	0.494110	0.911080
C331	C33	0.119100	0.972580	0.672770
C341	C34	0.235000	0.954730	0.738930
C351	C35	0.218900	0.736210	0.958810
Ba81	Ba8	0.680600	0.466660	0.950550
V81	V8	0.695150	0.099030	0.840850
O851	O85	0.503620	0.127170	0.841020
O861	O86	0.322740	0.094800	0.892420
O871	O87	0.629680	0.994980	0.912160
O881	O88	0.439140	0.935670	0.934190
O891	O89	0.520630	0.426330	0.664610
O901	O90	0.633320	0.537750	0.629490
O911	O91	0.723500	0.396500	0.785060
O921	O92	0.833040	0.505600	0.739280
O931	O93	0.737010	0.156510	0.944360
O941	O94	0.658970	0.289840	0.914600
O951	O95	0.728430	0.179130	0.788770
O961	O96	0.561100	0.618330	0.999200
H151	H15	0.545000	0.655000	0.968000
H161	H16	0.605000	0.652000	0.031000
C361	C36	0.434800	0.078250	0.878770
C371	C37	0.506000	0.994110	0.911080
C381	C38	0.619100	0.472580	0.672770
C391	C39	0.735000	0.454730	0.738930
C401	C40	0.718900	0.236210	0.958810
Ba91	Ba9	0.000000	0.218190	0.250000
Ba101	Ba10	0.500000	0.718190	0.250000
Ba111	Ba11	0.000000	0.781810	0.750000
Ba121	Ba12	0.500000	0.281810	0.750000
