data_YOTXOW_clean_PM
_symmetry_space_group_name_H-M	'P1'
_cell_length_a	37.133000
_cell_length_b	11.527800
_cell_length_c	6.515500
_cell_angle_alpha	90.000000
_cell_angle_beta	109.266000
_cell_angle_gamma	90.000000
_symmetry_Int_Tables_number 1

loop_
_symmetry_equiv_pos_as_xyz
'x,y,z'

loop_
_atom_site_label
_atom_site_type_symbol
_atom_site_fract_x
_atom_site_fract_y
_atom_site_fract_z
Al11	Al1	0.220900	0.283700	0.571000
O11	O1	0.194100	0.394800	0.354000
O21	O2	0.135900	0.450800	0.091000
O31	O3	0.226800	0.169800	0.810000
O41	O4	0.195900	0.027000	0.919000
O51	O5	0.034800	0.124700	0.128000
O61	O6	0.042300	0.093900	0.495000
O71	O7	0.229500	0.178400	0.382000
N11	N1	0.166600	0.248000	0.502000
C11	C1	0.158500	0.401000	0.252000
C21	C2	0.141700	0.296000	0.326000
C31	C3	0.102800	0.256000	0.265000
C41	C4	0.092800	0.185000	0.410000
C51	C5	0.121000	0.128000	0.581000
C61	C6	0.159400	0.158000	0.621000
C71	C7	0.195000	0.113000	0.798000
C81	C8	0.052700	0.131000	0.336000
Al21	Al2	0.720900	0.783700	0.571000
O81	O8	0.694100	0.894800	0.354000
O91	O9	0.635900	0.950800	0.091000
O101	O10	0.726800	0.669800	0.810000
O111	O11	0.695900	0.527000	0.919000
O121	O12	0.534800	0.624700	0.128000
O131	O13	0.542300	0.593900	0.495000
O141	O14	0.729500	0.678400	0.382000
N21	N2	0.666600	0.748000	0.502000
C91	C9	0.658500	0.901000	0.252000
C101	C10	0.641700	0.796000	0.326000
C111	C11	0.602800	0.756000	0.265000
C121	C12	0.592800	0.685000	0.410000
C131	C13	0.621000	0.628000	0.581000
C141	C14	0.659400	0.658000	0.621000
C151	C15	0.695000	0.613000	0.798000
C161	C16	0.552700	0.631000	0.336000
Al31	Al3	0.779100	0.283700	0.929000
O151	O15	0.805900	0.394800	0.146000
O161	O16	0.864100	0.450800	0.409000
O171	O17	0.773200	0.169800	0.690000
O181	O18	0.804100	0.027000	0.581000
O191	O19	0.965200	0.124700	0.372000
O201	O20	0.957700	0.093900	0.005000
O211	O21	0.770500	0.178400	0.118000
N31	N3	0.833400	0.248000	0.998000
C171	C17	0.841500	0.401000	0.248000
C181	C18	0.858300	0.296000	0.174000
C191	C19	0.897200	0.256000	0.235000
C201	C20	0.907200	0.185000	0.090000
C211	C21	0.879000	0.128000	0.919000
C221	C22	0.840600	0.158000	0.879000
C231	C23	0.805000	0.113000	0.702000
C241	C24	0.947300	0.131000	0.164000
Al41	Al4	0.279100	0.783700	0.929000
O221	O22	0.305900	0.894800	0.146000
O231	O23	0.364100	0.950800	0.409000
O241	O24	0.273200	0.669800	0.690000
O251	O25	0.304100	0.527000	0.581000
O261	O26	0.465200	0.624700	0.372000
O271	O27	0.457700	0.593900	0.005000
O281	O28	0.270500	0.678400	0.118000
N41	N4	0.333400	0.748000	0.998000
C251	C25	0.341500	0.901000	0.248000
C261	C26	0.358300	0.796000	0.174000
C271	C27	0.397200	0.756000	0.235000
C281	C28	0.407200	0.685000	0.090000
C291	C29	0.379000	0.628000	0.919000
C301	C30	0.340600	0.658000	0.879000
C311	C31	0.305000	0.613000	0.702000
C321	C32	0.447300	0.631000	0.164000
Al51	Al5	0.779100	0.716300	0.429000
O291	O29	0.805900	0.605200	0.646000
O301	O30	0.864100	0.549200	0.909000
O311	O31	0.773200	0.830200	0.190000
O321	O32	0.804100	0.973000	0.081000
O331	O33	0.965200	0.875300	0.872000
O341	O34	0.957700	0.906100	0.505000
O351	O35	0.770500	0.821600	0.618000
N51	N5	0.833400	0.752000	0.498000
C331	C33	0.841500	0.599000	0.748000
C341	C34	0.858300	0.704000	0.674000
C351	C35	0.897200	0.744000	0.735000
C361	C36	0.907200	0.815000	0.590000
C371	C37	0.879000	0.872000	0.419000
C381	C38	0.840600	0.842000	0.379000
C391	C39	0.805000	0.887000	0.202000
C401	C40	0.947300	0.869000	0.664000
Al61	Al6	0.279100	0.216300	0.429000
O361	O36	0.305900	0.105200	0.646000
O371	O37	0.364100	0.049200	0.909000
O381	O38	0.273200	0.330200	0.190000
O391	O39	0.304100	0.473000	0.081000
O401	O40	0.465200	0.375300	0.872000
O411	O41	0.457700	0.406100	0.505000
O421	O42	0.270500	0.321600	0.618000
N61	N6	0.333400	0.252000	0.498000
C411	C41	0.341500	0.099000	0.748000
C421	C42	0.358300	0.204000	0.674000
C431	C43	0.397200	0.244000	0.735000
C441	C44	0.407200	0.315000	0.590000
C451	C45	0.379000	0.372000	0.419000
C461	C46	0.340600	0.342000	0.379000
C471	C47	0.305000	0.387000	0.202000
C481	C48	0.447300	0.369000	0.664000
Al71	Al7	0.220900	0.716300	0.071000
O431	O43	0.194100	0.605200	0.854000
O441	O44	0.135900	0.549200	0.591000
O451	O45	0.226800	0.830200	0.310000
O461	O46	0.195900	0.973000	0.419000
O471	O47	0.034800	0.875300	0.628000
O481	O48	0.042300	0.906100	0.995000
O491	O49	0.229500	0.821600	0.882000
N71	N7	0.166600	0.752000	0.002000
C491	C49	0.158500	0.599000	0.752000
C501	C50	0.141700	0.704000	0.826000
C511	C51	0.102800	0.744000	0.765000
C521	C52	0.092800	0.815000	0.910000
C531	C53	0.121000	0.872000	0.081000
C541	C54	0.159400	0.842000	0.121000
C551	C55	0.195000	0.887000	0.298000
C561	C56	0.052700	0.869000	0.836000
Al81	Al8	0.720900	0.216300	0.071000
O501	O50	0.694100	0.105200	0.854000
O511	O51	0.635900	0.049200	0.591000
O521	O52	0.726800	0.330200	0.310000
O531	O53	0.695900	0.473000	0.419000
O541	O54	0.534800	0.375300	0.628000
O551	O55	0.542300	0.406100	0.995000
O561	O56	0.729500	0.321600	0.882000
N81	N8	0.666600	0.252000	0.002000
C571	C57	0.658500	0.099000	0.752000
C581	C58	0.641700	0.204000	0.826000
C591	C59	0.602800	0.244000	0.765000
C601	C60	0.592800	0.315000	0.910000
C611	C61	0.621000	0.372000	0.081000
C621	C62	0.659400	0.342000	0.121000
C631	C63	0.695000	0.387000	0.298000
C641	C64	0.552700	0.369000	0.836000
Al91	Al9	0.000000	0.000000	0.000000
Al101	Al10	0.500000	0.500000	0.000000
Al111	Al11	0.000000	0.000000	0.500000
Al121	Al12	0.500000	0.500000	0.500000
O571	O57	0.000000	0.924000	0.250000
O581	O58	0.500000	0.424000	0.250000
O591	O59	0.000000	0.076000	0.750000
O601	O60	0.500000	0.576000	0.750000
