data_YOVXEO_clean_PM
_symmetry_space_group_name_H-M	'P1'
_cell_length_a	23.862000
_cell_length_b	8.593000
_cell_length_c	19.058400
_cell_angle_alpha	90.000000
_cell_angle_beta	90.000000
_cell_angle_gamma	90.000000
_symmetry_Int_Tables_number 1

loop_
_symmetry_equiv_pos_as_xyz
'x,y,z'

loop_
_atom_site_label
_atom_site_type_symbol
_atom_site_fract_x
_atom_site_fract_y
_atom_site_fract_z
Co11	Co1	0.343760	0.697330	0.483750
P11	P1	0.598720	0.473400	0.134660
N11	N1	0.403000	0.880200	0.482300
N21	N2	0.584700	0.156800	0.472400
N31	N3	0.779700	0.973600	0.482200
C11	C1	0.390800	0.027700	0.464700
H11	H1	0.353000	0.053700	0.454500
C21	C2	0.431400	0.144200	0.460600
H21	H2	0.420800	0.248400	0.450500
C31	C3	0.486400	0.107100	0.471500
C41	C4	0.499200	0.953800	0.490700
H31	H3	0.536700	0.924800	0.501500
C51	C5	0.457100	0.847100	0.493700
H41	H4	0.466600	0.742500	0.504400
C61	C6	0.534400	0.218400	0.461200
C71	C7	0.527800	0.370300	0.437100
H51	H5	0.491400	0.412100	0.430500
C81	C8	0.574300	0.459800	0.422900
C91	C9	0.626400	0.393400	0.431300
H61	H6	0.659300	0.449600	0.419200
C101	C10	0.630200	0.241900	0.458000
C111	C11	0.684400	0.161200	0.468600
C121	C12	0.730500	0.181900	0.426900
H71	H7	0.730400	0.262000	0.392500
C131	C13	0.776500	0.089500	0.433900
H81	H8	0.807700	0.106900	0.403900
C141	C14	0.736200	0.960000	0.525100
H91	H9	0.738400	0.886000	0.562100
C151	C15	0.688300	0.046300	0.519300
H101	H10	0.657700	0.027500	0.550100
C161	C16	0.571500	0.621700	0.393400
C171	C17	0.525100	0.671500	0.356500
H111	H11	0.492700	0.607400	0.353800
C181	C18	0.525700	0.817900	0.322700
H121	H12	0.493600	0.852300	0.297800
C191	C19	0.572100	0.910000	0.325600
C201	C20	0.617400	0.863500	0.364700
H131	H13	0.649700	0.928000	0.367000
C211	C21	0.616500	0.722400	0.401000
H141	H14	0.646800	0.695300	0.431000
C221	C22	0.576500	0.054500	0.281700
C231	C23	0.535500	0.165300	0.279800
H151	H15	0.502900	0.152700	0.307900
C241	C24	0.540700	0.297400	0.237200
H161	H16	0.512500	0.375300	0.237700
C251	C25	0.588300	0.314300	0.193100
C261	C26	0.627900	0.196500	0.195500
H171	H17	0.659500	0.203300	0.165300
C271	C27	0.623800	0.070900	0.239300
H181	H18	0.652900	0.995400	0.240800
C281	C28	0.534800	0.587000	0.132900
C291	C29	0.484700	0.516200	0.116400
H191	H19	0.484600	0.409900	0.102600
C301	C30	0.434900	0.596100	0.119300
H201	H20	0.400500	0.544700	0.109500
C311	C31	0.435500	0.754300	0.136900
H211	H21	0.401400	0.811200	0.138700
C321	C32	0.485100	0.827000	0.151400
H221	H22	0.485200	0.934800	0.162400
C331	C33	0.534700	0.746900	0.150100
H231	H23	0.568800	0.798600	0.160800
C341	C34	0.655400	0.589600	0.170500
C351	C35	0.681400	0.695600	0.128000
H241	H24	0.668000	0.713400	0.081800
C361	C36	0.728200	0.778100	0.153100
H251	H25	0.747900	0.848000	0.123400
C371	C37	0.745400	0.755200	0.223100
H261	H26	0.776200	0.812800	0.241200
C381	C38	0.718400	0.651500	0.264900
H271	H27	0.731300	0.634800	0.311400
C391	C39	0.671900	0.568900	0.240300
H281	H28	0.652000	0.500100	0.270300
O11	O1	0.613600	0.419400	0.063300
Co21	Co2	0.656240	0.302670	0.983750
P21	P2	0.401280	0.526600	0.634660
N41	N4	0.597000	0.119800	0.982300
N51	N5	0.415300	0.843200	0.972400
N61	N6	0.220300	0.026400	0.982200
C401	C40	0.609200	0.972300	0.964700
H291	H29	0.647000	0.946300	0.954500
C411	C41	0.568600	0.855800	0.960600
H301	H30	0.579200	0.751600	0.950500
C421	C42	0.513600	0.892900	0.971500
C431	C43	0.500800	0.046200	0.990700
H311	H31	0.463300	0.075200	0.001500
C441	C44	0.542900	0.152900	0.993700
H321	H32	0.533400	0.257500	0.004400
C451	C45	0.465600	0.781600	0.961200
C461	C46	0.472200	0.629700	0.937100
H331	H33	0.508600	0.587900	0.930500
C471	C47	0.425700	0.540200	0.922900
C481	C48	0.373600	0.606600	0.931300
H341	H34	0.340700	0.550400	0.919200
C491	C49	0.369800	0.758100	0.958000
C501	C50	0.315600	0.838800	0.968600
C511	C51	0.269500	0.818100	0.926900
H351	H35	0.269600	0.738000	0.892500
C521	C52	0.223500	0.910500	0.933900
H361	H36	0.192300	0.893100	0.903900
C531	C53	0.263800	0.040000	0.025100
H371	H37	0.261600	0.114000	0.062100
C541	C54	0.311700	0.953700	0.019300
H381	H38	0.342300	0.972500	0.050100
C551	C55	0.428500	0.378300	0.893400
C561	C56	0.474900	0.328500	0.856500
H391	H39	0.507300	0.392600	0.853800
C571	C57	0.474300	0.182100	0.822700
H401	H40	0.506400	0.147700	0.797800
C581	C58	0.427900	0.090000	0.825600
C591	C59	0.382600	0.136500	0.864700
H411	H41	0.350300	0.072000	0.867000
C601	C60	0.383500	0.277600	0.901000
H421	H42	0.353200	0.304700	0.931000
C611	C61	0.423500	0.945500	0.781700
C621	C62	0.464500	0.834700	0.779800
H431	H43	0.497100	0.847300	0.807900
C631	C63	0.459300	0.702600	0.737200
H441	H44	0.487500	0.624700	0.737700
C641	C64	0.411700	0.685700	0.693100
C651	C65	0.372100	0.803500	0.695500
H451	H45	0.340500	0.796700	0.665300
C661	C66	0.376200	0.929100	0.739300
H461	H46	0.347100	0.004600	0.740800
C671	C67	0.465200	0.413000	0.632900
C681	C68	0.515300	0.483800	0.616400
H471	H47	0.515400	0.590100	0.602600
C691	C69	0.565100	0.403900	0.619300
H481	H48	0.599500	0.455300	0.609500
C701	C70	0.564500	0.245700	0.636900
H491	H49	0.598600	0.188800	0.638700
C711	C71	0.514900	0.173000	0.651400
H501	H50	0.514800	0.065200	0.662400
C721	C72	0.465300	0.253100	0.650100
H511	H51	0.431200	0.201400	0.660800
C731	C73	0.344600	0.410400	0.670500
C741	C74	0.318600	0.304400	0.628000
H521	H52	0.332000	0.286600	0.581800
C751	C75	0.271800	0.221900	0.653100
H531	H53	0.252100	0.152000	0.623400
C761	C76	0.254600	0.244800	0.723100
H541	H54	0.223800	0.187200	0.741200
C771	C77	0.281600	0.348500	0.764900
H551	H55	0.268700	0.365200	0.811400
C781	C78	0.328100	0.431100	0.740300
H561	H56	0.348000	0.499900	0.770300
O21	O2	0.386400	0.580600	0.563300
Co31	Co3	0.843760	0.802670	0.483750
P31	P3	0.098720	0.026600	0.134660
N71	N7	0.903000	0.619800	0.482300
N81	N8	0.084700	0.343200	0.472400
N91	N9	0.279700	0.526400	0.482200
C791	C79	0.890800	0.472300	0.464700
H571	H57	0.853000	0.446300	0.454500
C801	C80	0.931400	0.355800	0.460600
H581	H58	0.920800	0.251600	0.450500
C811	C81	0.986400	0.392900	0.471500
C821	C82	0.999200	0.546200	0.490700
H591	H59	0.036700	0.575200	0.501500
C831	C83	0.957100	0.652900	0.493700
H601	H60	0.966600	0.757500	0.504400
C841	C84	0.034400	0.281600	0.461200
C851	C85	0.027800	0.129700	0.437100
H611	H61	0.991400	0.087900	0.430500
C861	C86	0.074300	0.040200	0.422900
C871	C87	0.126400	0.106600	0.431300
H621	H62	0.159300	0.050400	0.419200
C881	C88	0.130200	0.258100	0.458000
C891	C89	0.184400	0.338800	0.468600
C901	C90	0.230500	0.318100	0.426900
H631	H63	0.230400	0.238000	0.392500
C911	C91	0.276500	0.410500	0.433900
H641	H64	0.307700	0.393100	0.403900
C921	C92	0.236200	0.540000	0.525100
H651	H65	0.238400	0.614000	0.562100
C931	C93	0.188300	0.453700	0.519300
H661	H66	0.157700	0.472500	0.550100
C941	C94	0.071500	0.878300	0.393400
C951	C95	0.025100	0.828500	0.356500
H671	H67	0.992700	0.892600	0.353800
C961	C96	0.025700	0.682100	0.322700
H681	H68	0.993600	0.647700	0.297800
C971	C97	0.072100	0.590000	0.325600
C981	C98	0.117400	0.636500	0.364700
H691	H69	0.149700	0.572000	0.367000
C991	C99	0.116500	0.777600	0.401000
H701	H70	0.146800	0.804700	0.431000
C1001	C100	0.076500	0.445500	0.281700
C1011	C101	0.035500	0.334700	0.279800
H711	H71	0.002900	0.347300	0.307900
C1021	C102	0.040700	0.202600	0.237200
H721	H72	0.012500	0.124700	0.237700
C1031	C103	0.088300	0.185700	0.193100
C1041	C104	0.127900	0.303500	0.195500
H731	H73	0.159500	0.296700	0.165300
C1051	C105	0.123800	0.429100	0.239300
H741	H74	0.152900	0.504600	0.240800
C1061	C106	0.034800	0.913000	0.132900
C1071	C107	0.984700	0.983800	0.116400
H751	H75	0.984600	0.090100	0.102600
C1081	C108	0.934900	0.903900	0.119300
H761	H76	0.900500	0.955300	0.109500
C1091	C109	0.935500	0.745700	0.136900
H771	H77	0.901400	0.688800	0.138700
C1101	C110	0.985100	0.673000	0.151400
H781	H78	0.985200	0.565200	0.162400
C1111	C111	0.034700	0.753100	0.150100
H791	H79	0.068800	0.701400	0.160800
C1121	C112	0.155400	0.910400	0.170500
C1131	C113	0.181400	0.804400	0.128000
H801	H80	0.168000	0.786600	0.081800
C1141	C114	0.228200	0.721900	0.153100
H811	H81	0.247900	0.652000	0.123400
C1151	C115	0.245400	0.744800	0.223100
H821	H82	0.276200	0.687200	0.241200
C1161	C116	0.218400	0.848500	0.264900
H831	H83	0.231300	0.865200	0.311400
C1171	C117	0.171900	0.931100	0.240300
H841	H84	0.152000	0.999900	0.270300
O31	O3	0.113600	0.080600	0.063300
Co41	Co4	0.156240	0.197330	0.983750
P41	P4	0.901280	0.973400	0.634660
N101	N10	0.097000	0.380200	0.982300
N111	N11	0.915300	0.656800	0.972400
N121	N12	0.720300	0.473600	0.982200
C1181	C118	0.109200	0.527700	0.964700
H851	H85	0.147000	0.553700	0.954500
C1191	C119	0.068600	0.644200	0.960600
H861	H86	0.079200	0.748400	0.950500
C1201	C120	0.013600	0.607100	0.971500
C1211	C121	0.000800	0.453800	0.990700
H871	H87	0.963300	0.424800	0.001500
C1221	C122	0.042900	0.347100	0.993700
H881	H88	0.033400	0.242500	0.004400
C1231	C123	0.965600	0.718400	0.961200
C1241	C124	0.972200	0.870300	0.937100
H891	H89	0.008600	0.912100	0.930500
C1251	C125	0.925700	0.959800	0.922900
C1261	C126	0.873600	0.893400	0.931300
H901	H90	0.840700	0.949600	0.919200
C1271	C127	0.869800	0.741900	0.958000
C1281	C128	0.815600	0.661200	0.968600
C1291	C129	0.769500	0.681900	0.926900
H911	H91	0.769600	0.762000	0.892500
C1301	C130	0.723500	0.589500	0.933900
H921	H92	0.692300	0.606900	0.903900
C1311	C131	0.763800	0.460000	0.025100
H931	H93	0.761600	0.386000	0.062100
C1321	C132	0.811700	0.546300	0.019300
H941	H94	0.842300	0.527500	0.050100
C1331	C133	0.928500	0.121700	0.893400
C1341	C134	0.974900	0.171500	0.856500
H951	H95	0.007300	0.107400	0.853800
C1351	C135	0.974300	0.317900	0.822700
H961	H96	0.006400	0.352300	0.797800
C1361	C136	0.927900	0.410000	0.825600
C1371	C137	0.882600	0.363500	0.864700
H971	H97	0.850300	0.428000	0.867000
C1381	C138	0.883500	0.222400	0.901000
H981	H98	0.853200	0.195300	0.931000
C1391	C139	0.923500	0.554500	0.781700
C1401	C140	0.964500	0.665300	0.779800
H991	H99	0.997100	0.652700	0.807900
C1411	C141	0.959300	0.797400	0.737200
H1001	H100	0.987500	0.875300	0.737700
C1421	C142	0.911700	0.814300	0.693100
C1431	C143	0.872100	0.696500	0.695500
H1011	H101	0.840500	0.703300	0.665300
C1441	C144	0.876200	0.570900	0.739300
H1021	H102	0.847100	0.495400	0.740800
C1451	C145	0.965200	0.087000	0.632900
C1461	C146	0.015300	0.016200	0.616400
H1031	H103	0.015400	0.909900	0.602600
C1471	C147	0.065100	0.096100	0.619300
H1041	H104	0.099500	0.044700	0.609500
C1481	C148	0.064500	0.254300	0.636900
H1051	H105	0.098600	0.311200	0.638700
C1491	C149	0.014900	0.327000	0.651400
H1061	H106	0.014800	0.434800	0.662400
C1501	C150	0.965300	0.246900	0.650100
H1071	H107	0.931200	0.298600	0.660800
C1511	C151	0.844600	0.089600	0.670500
C1521	C152	0.818600	0.195600	0.628000
H1081	H108	0.832000	0.213400	0.581800
C1531	C153	0.771800	0.278100	0.653100
H1091	H109	0.752100	0.348000	0.623400
C1541	C154	0.754600	0.255200	0.723100
H1101	H110	0.723800	0.312800	0.741200
C1551	C155	0.781600	0.151500	0.764900
H1111	H111	0.768700	0.134800	0.811400
C1561	C156	0.828100	0.068900	0.740300
H1121	H112	0.848000	0.000100	0.770300
O41	O4	0.886400	0.919400	0.563300
