data_YOYBUL_clean_PM
_symmetry_space_group_name_H-M	'P1'
_cell_length_a	11.442400
_cell_length_b	15.135200
_cell_length_c	15.214100
_cell_angle_alpha	112.002000
_cell_angle_beta	96.433000
_cell_angle_gamma	98.574000
_symmetry_Int_Tables_number 1

loop_
_symmetry_equiv_pos_as_xyz
'x,y,z'

loop_
_atom_site_label
_atom_site_type_symbol
_atom_site_fract_x
_atom_site_fract_y
_atom_site_fract_z
Zn11	Zn1	0.350400	0.138990	0.730960
O11	O1	0.315500	0.994820	0.696850
O21	O2	0.379800	0.194610	0.875070
O31	O3	0.438800	0.346900	0.890920
O41	O4	0.274100	0.983250	0.546500
C11	C1	0.323300	0.697000	0.595800
H11	H1	0.327400	0.665200	0.637500
N11	N1	0.355600	0.507670	0.368180
C21	C2	0.367900	0.282200	0.167100
H21	H2	0.350400	0.236200	0.193100
N21	N2	0.540000	0.137710	0.727180
C31	C3	0.423600	0.416200	0.087100
H31	H3	0.443700	0.462100	0.061400
C41	C4	0.370600	0.357000	0.378800
H41	H4	0.381900	0.293700	0.349100
N31	N3	0.358300	0.220760	0.644220
C51	C5	0.314300	0.793900	0.631100
H51	H5	0.314800	0.827000	0.696500
C61	C6	0.741900	0.229600	0.768100
H61	H6	0.793800	0.290200	0.795700
C71	C7	0.915400	0.148000	0.729600
C81	C8	0.326500	0.646900	0.499600
C91	C9	0.319200	0.695700	0.439600
H71	H7	0.321900	0.663500	0.374700
C101	C10	0.354500	0.392100	0.474700
C111	C11	0.384500	0.381300	0.225300
C121	C12	0.339600	0.543100	0.459300
N41	N4	0.160800	0.148800	0.729900
C131	C13	0.786200	0.144800	0.730100
C141	C14	0.955500	0.084600	0.655000
H81	H8	0.901000	0.039200	0.601300
C151	C15	0.337000	0.488300	0.514700
H91	H9	0.323900	0.514900	0.577800
C161	C16	0.003200	0.219200	0.799700
H101	H10	0.982500	0.270100	0.848500
C171	C17	0.355300	0.332800	0.532400
C181	C18	0.704100	0.057500	0.689700
H111	H11	0.729900	0.999500	0.661500
C191	C19	0.405100	0.318400	0.030200
C201	C20	0.365100	0.236500	0.495900
H121	H12	0.371200	0.206500	0.431400
C211	C21	0.307800	0.792200	0.474400
H131	H13	0.302300	0.823800	0.432600
C221	C22	0.370000	0.415500	0.328100
C231	C23	0.412000	0.446200	0.183400
H141	H14	0.423300	0.512600	0.220800
C241	C24	0.377400	0.252300	0.070500
H151	H15	0.364800	0.186100	0.032300
C251	C25	0.619900	0.222000	0.764100
H161	H16	0.591400	0.279200	0.788600
C261	C26	0.296100	0.947600	0.605600
C271	C27	0.304500	0.841600	0.570800
C281	C28	0.583200	0.056300	0.691400
H171	H17	0.529600	0.996500	0.666700
C291	C29	0.077200	0.087900	0.659100
H181	H18	0.101200	0.043100	0.607100
C301	C30	0.408400	0.285700	0.923700
C311	C31	0.349000	0.369500	0.628200
H191	H19	0.343700	0.434400	0.658600
C321	C32	0.366000	0.184100	0.551600
H201	H20	0.372400	0.119300	0.523300
C331	C33	0.350400	0.313600	0.680100
H211	H21	0.345500	0.342300	0.745000
C341	C34	0.121400	0.214800	0.797300
H221	H22	0.178500	0.262500	0.847500
Zn21	Zn2	0.649600	0.861010	0.269040
O51	O5	0.684500	0.005180	0.303150
O61	O6	0.620200	0.805390	0.124930
O71	O7	0.561200	0.653100	0.109080
O81	O8	0.725900	0.016750	0.453500
C351	C35	0.676700	0.303000	0.404200
H231	H23	0.672600	0.334800	0.362500
N51	N5	0.644400	0.492330	0.631820
C361	C36	0.632100	0.717800	0.832900
H241	H24	0.649600	0.763800	0.806900
N61	N6	0.460000	0.862290	0.272820
C371	C37	0.576400	0.583800	0.912900
H251	H25	0.556300	0.537900	0.938600
C381	C38	0.629400	0.643000	0.621200
H261	H26	0.618100	0.706300	0.650900
N71	N7	0.641700	0.779240	0.355780
C391	C39	0.685700	0.206100	0.368900
H271	H27	0.685200	0.173000	0.303500
C401	C40	0.258100	0.770400	0.231900
H281	H28	0.206200	0.709800	0.204300
C411	C41	0.084600	0.852000	0.270400
C421	C42	0.673500	0.353100	0.500400
C431	C43	0.680800	0.304300	0.560400
H291	H29	0.678100	0.336500	0.625300
C441	C44	0.645500	0.607900	0.525300
C451	C45	0.615500	0.618700	0.774700
C461	C46	0.660400	0.456900	0.540700
N81	N8	0.839200	0.851200	0.270100
C471	C47	0.213800	0.855200	0.269900
C481	C48	0.044500	0.915400	0.345000
H301	H30	0.099000	0.960800	0.398700
C491	C49	0.663000	0.511700	0.485300
H311	H31	0.676100	0.485100	0.422200
C501	C50	0.996800	0.780800	0.200300
H321	H32	0.017500	0.729900	0.151500
C511	C51	0.644700	0.667200	0.467600
C521	C52	0.295900	0.942500	0.310300
H331	H33	0.270100	0.000500	0.338500
C531	C53	0.594900	0.681600	0.969800
C541	C54	0.634900	0.763500	0.504100
H341	H34	0.628800	0.793500	0.568600
C551	C55	0.692200	0.207800	0.525600
H351	H35	0.697700	0.176200	0.567400
C561	C56	0.630000	0.584500	0.671900
C571	C57	0.588000	0.553800	0.816600
H361	H36	0.576700	0.487400	0.779200
C581	C58	0.622600	0.747700	0.929500
H371	H37	0.635200	0.813900	0.967700
C591	C59	0.380100	0.778000	0.235900
H381	H38	0.408600	0.720800	0.211400
C601	C60	0.703900	0.052400	0.394400
C611	C61	0.695500	0.158400	0.429200
C621	C62	0.416800	0.943700	0.308600
H391	H39	0.470400	0.003500	0.333300
C631	C63	0.922800	0.912100	0.340900
H401	H40	0.898800	0.956900	0.392900
C641	C64	0.591600	0.714300	0.076300
C651	C65	0.651000	0.630500	0.371800
H411	H41	0.656300	0.565600	0.341400
C661	C66	0.634000	0.815900	0.448400
H421	H42	0.627600	0.880700	0.476700
C671	C67	0.649600	0.686400	0.319900
H431	H43	0.654500	0.657700	0.255000
C681	C68	0.878600	0.785200	0.202700
H441	H44	0.821500	0.737500	0.152500
