data_YOYNUX_clean_PM
_symmetry_space_group_name_H-M	'P1'
_cell_length_a	16.802000
_cell_length_b	16.802000
_cell_length_c	13.960000
_cell_angle_alpha	90.000000
_cell_angle_beta	90.000000
_cell_angle_gamma	120.000000
_symmetry_Int_Tables_number 1

loop_
_symmetry_equiv_pos_as_xyz
'x,y,z'

loop_
_atom_site_label
_atom_site_type_symbol
_atom_site_fract_x
_atom_site_fract_y
_atom_site_fract_z
O11	O1	0.777730	0.424570	0.181500
N11	N1	0.112300	0.506440	0.412810
N21	N2	0.228510	0.561560	0.517620
C11	C1	0.966690	0.458600	0.331210
H11	H1	0.934700	0.426500	0.385500
C21	C2	0.061750	0.505560	0.330550
C31	C3	0.191140	0.579790	0.444690
H21	H2	0.216400	0.637900	0.417200
C41	C4	0.170000	0.468200	0.536500
C51	C5	0.175400	0.412000	0.606400
H31	H3	0.223300	0.434600	0.650600
C61	C6	0.106700	0.321300	0.607200
H41	H4	0.108900	0.281900	0.652500
C71	C7	0.033800	0.286500	0.542000
H51	H5	0.988400	0.225000	0.545800
C81	C8	0.027700	0.341400	0.472100
H61	H6	0.979900	0.318200	0.427900
C91	C9	0.096300	0.432500	0.471400
O21	O2	0.575430	0.353160	0.181500
N31	N3	0.493560	0.605860	0.412810
N41	N4	0.438440	0.666950	0.517620
C101	C10	0.541400	0.508090	0.331210
H71	H7	0.573500	0.508200	0.385500
C111	C11	0.494440	0.556190	0.330550
C121	C12	0.420210	0.611350	0.444690
H81	H8	0.362100	0.578500	0.417200
C131	C13	0.531800	0.701800	0.536500
C141	C14	0.588000	0.763400	0.606400
H91	H9	0.565400	0.788700	0.650600
C151	C15	0.678700	0.785400	0.607200
H101	H10	0.718100	0.827000	0.652500
C161	C16	0.713500	0.747300	0.542000
H111	H11	0.775000	0.763400	0.545800
C171	C17	0.658600	0.686300	0.472100
H121	H12	0.681800	0.661700	0.427900
C181	C18	0.567500	0.663800	0.471400
O31	O3	0.646840	0.222270	0.181500
N51	N5	0.394140	0.887700	0.412810
N61	N6	0.333050	0.771490	0.517620
C191	C19	0.491910	0.033310	0.331210
H131	H13	0.491800	0.065300	0.385500
C201	C20	0.443810	0.938250	0.330550
C211	C21	0.388650	0.808860	0.444690
H141	H14	0.421500	0.783600	0.417200
C221	C22	0.298200	0.830000	0.536500
C231	C23	0.236600	0.824600	0.606400
H151	H15	0.211300	0.776700	0.650600
C241	C24	0.214600	0.893300	0.607200
H161	H16	0.173000	0.891100	0.652500
C251	C25	0.252700	0.966200	0.542000
H171	H17	0.236600	0.011600	0.545800
C261	C26	0.313700	0.972300	0.472100
H181	H18	0.338300	0.020100	0.427900
C271	C27	0.336200	0.903700	0.471400
O41	O4	0.575430	0.222270	0.318500
N71	N7	0.493560	0.887700	0.087190
N81	N8	0.438440	0.771490	0.982380
C281	C28	0.541400	0.033310	0.168790
H191	H19	0.573500	0.065300	0.114500
C291	C29	0.494440	0.938250	0.169450
C301	C30	0.420210	0.808860	0.055310
H201	H20	0.362100	0.783600	0.082800
C311	C31	0.531800	0.830000	0.963500
C321	C32	0.588000	0.824600	0.893600
H211	H21	0.565400	0.776700	0.849400
C331	C33	0.678700	0.893300	0.892800
H221	H22	0.718100	0.891100	0.847500
C341	C34	0.713500	0.966200	0.958000
H231	H23	0.775000	0.011600	0.954200
C351	C35	0.658600	0.972300	0.027900
H241	H24	0.681800	0.020100	0.072100
C361	C36	0.567500	0.903700	0.028600
O51	O5	0.646840	0.424570	0.318500
N91	N9	0.394140	0.506440	0.087190
N101	N10	0.333050	0.561560	0.982380
C371	C37	0.491910	0.458600	0.168790
H251	H25	0.491800	0.426500	0.114500
C381	C38	0.443810	0.505560	0.169450
C391	C39	0.388650	0.579790	0.055310
H261	H26	0.421500	0.637900	0.082800
C401	C40	0.298200	0.468200	0.963500
C411	C41	0.236600	0.412000	0.893600
H271	H27	0.211300	0.434600	0.849400
C421	C42	0.214600	0.321300	0.892800
H281	H28	0.173000	0.281900	0.847500
C431	C43	0.252700	0.286500	0.958000
H291	H29	0.236600	0.225000	0.954200
C441	C44	0.313700	0.341400	0.027900
H301	H30	0.338300	0.318200	0.072100
C451	C45	0.336200	0.432500	0.028600
O61	O6	0.777730	0.353160	0.318500
N111	N11	0.112300	0.605860	0.087190
N121	N12	0.228510	0.666950	0.982380
C461	C46	0.966690	0.508090	0.168790
H311	H31	0.934700	0.508200	0.114500
C471	C47	0.061750	0.556190	0.169450
C481	C48	0.191140	0.611350	0.055310
H321	H32	0.216400	0.578500	0.082800
C491	C49	0.170000	0.701800	0.963500
C501	C50	0.175400	0.763400	0.893600
H331	H33	0.223300	0.788700	0.849400
C511	C51	0.106700	0.785400	0.892800
H341	H34	0.108900	0.827000	0.847500
C521	C52	0.033800	0.747300	0.958000
H351	H35	0.988400	0.763400	0.954200
C531	C53	0.027700	0.686300	0.027900
H361	H36	0.979900	0.661700	0.072100
C541	C54	0.096300	0.663800	0.028600
O71	O7	0.222270	0.575430	0.818500
N131	N13	0.887700	0.493560	0.587190
N141	N14	0.771490	0.438440	0.482380
C551	C55	0.033310	0.541400	0.668790
H371	H37	0.065300	0.573500	0.614500
C561	C56	0.938250	0.494440	0.669450
C571	C57	0.808860	0.420210	0.555310
H381	H38	0.783600	0.362100	0.582800
C581	C58	0.830000	0.531800	0.463500
C591	C59	0.824600	0.588000	0.393600
H391	H39	0.776700	0.565400	0.349400
C601	C60	0.893300	0.678700	0.392800
H401	H40	0.891100	0.718100	0.347500
C611	C61	0.966200	0.713500	0.458000
H411	H41	0.011600	0.775000	0.454200
C621	C62	0.972300	0.658600	0.527900
H421	H42	0.020100	0.681800	0.572100
C631	C63	0.903700	0.567500	0.528600
O81	O8	0.424570	0.646840	0.818500
N151	N15	0.506440	0.394140	0.587190
N161	N16	0.561560	0.333050	0.482380
C641	C64	0.458600	0.491910	0.668790
H431	H43	0.426500	0.491800	0.614500
C651	C65	0.505560	0.443810	0.669450
C661	C66	0.579790	0.388650	0.555310
H441	H44	0.637900	0.421500	0.582800
C671	C67	0.468200	0.298200	0.463500
C681	C68	0.412000	0.236600	0.393600
H451	H45	0.434600	0.211300	0.349400
C691	C69	0.321300	0.214600	0.392800
H461	H46	0.281900	0.173000	0.347500
C701	C70	0.286500	0.252700	0.458000
H471	H47	0.225000	0.236600	0.454200
C711	C71	0.341400	0.313700	0.527900
H481	H48	0.318200	0.338300	0.572100
C721	C72	0.432500	0.336200	0.528600
O91	O9	0.353160	0.777730	0.818500
N171	N17	0.605860	0.112300	0.587190
N181	N18	0.666950	0.228510	0.482380
C731	C73	0.508090	0.966690	0.668790
H491	H49	0.508200	0.934700	0.614500
C741	C74	0.556190	0.061750	0.669450
C751	C75	0.611350	0.191140	0.555310
H501	H50	0.578500	0.216400	0.582800
C761	C76	0.701800	0.170000	0.463500
C771	C77	0.763400	0.175400	0.393600
H511	H51	0.788700	0.223300	0.349400
C781	C78	0.785400	0.106700	0.392800
H521	H52	0.827000	0.108900	0.347500
C791	C79	0.747300	0.033800	0.458000
H531	H53	0.763400	0.988400	0.454200
C801	C80	0.686300	0.027700	0.527900
H541	H54	0.661700	0.979900	0.572100
C811	C81	0.663800	0.096300	0.528600
O101	O10	0.424570	0.777730	0.681500
N191	N19	0.506440	0.112300	0.912810
N201	N20	0.561560	0.228510	0.017620
C821	C82	0.458600	0.966690	0.831210
H551	H55	0.426500	0.934700	0.885500
C831	C83	0.505560	0.061750	0.830550
C841	C84	0.579790	0.191140	0.944690
H561	H56	0.637900	0.216400	0.917200
C851	C85	0.468200	0.170000	0.036500
C861	C86	0.412000	0.175400	0.106400
H571	H57	0.434600	0.223300	0.150600
C871	C87	0.321300	0.106700	0.107200
H581	H58	0.281900	0.108900	0.152500
C881	C88	0.286500	0.033800	0.042000
H591	H59	0.225000	0.988400	0.045800
C891	C89	0.341400	0.027700	0.972100
H601	H60	0.318200	0.979900	0.927900
C901	C90	0.432500	0.096300	0.971400
O111	O11	0.353160	0.575430	0.681500
N211	N21	0.605860	0.493560	0.912810
N221	N22	0.666950	0.438440	0.017620
C911	C91	0.508090	0.541400	0.831210
H611	H61	0.508200	0.573500	0.885500
C921	C92	0.556190	0.494440	0.830550
C931	C93	0.611350	0.420210	0.944690
H621	H62	0.578500	0.362100	0.917200
C941	C94	0.701800	0.531800	0.036500
C951	C95	0.763400	0.588000	0.106400
H631	H63	0.788700	0.565400	0.150600
C961	C96	0.785400	0.678700	0.107200
H641	H64	0.827000	0.718100	0.152500
C971	C97	0.747300	0.713500	0.042000
H651	H65	0.763400	0.775000	0.045800
C981	C98	0.686300	0.658600	0.972100
H661	H66	0.661700	0.681800	0.927900
C991	C99	0.663800	0.567500	0.971400
O121	O12	0.222270	0.646840	0.681500
N231	N23	0.887700	0.394140	0.912810
N241	N24	0.771490	0.333050	0.017620
C1001	C100	0.033310	0.491910	0.831210
H671	H67	0.065300	0.491800	0.885500
C1011	C101	0.938250	0.443810	0.830550
C1021	C102	0.808860	0.388650	0.944690
H681	H68	0.783600	0.421500	0.917200
C1031	C103	0.830000	0.298200	0.036500
C1041	C104	0.824600	0.236600	0.106400
H691	H69	0.776700	0.211300	0.150600
C1051	C105	0.893300	0.214600	0.107200
H701	H70	0.891100	0.173000	0.152500
C1061	C106	0.966200	0.252700	0.042000
H711	H71	0.011600	0.236600	0.045800
C1071	C107	0.972300	0.313700	0.972100
H721	H72	0.020100	0.338300	0.927900
C1081	C108	0.903700	0.336200	0.971400
Ni11	Ni1	0.666670	0.333330	0.103480
Ni21	Ni2	0.666670	0.333330	0.396520
Ni31	Ni3	0.333330	0.666670	0.896520
Ni41	Ni4	0.333330	0.666670	0.603480
C1091	C109	0.815500	0.407750	0.250000
C1101	C110	0.919500	0.459750	0.250000
C1111	C111	0.110000	0.555000	0.250000
H731	H73	0.173900	0.586950	0.250000
C1121	C112	0.592250	0.407750	0.250000
C1131	C113	0.540250	0.459750	0.250000
C1141	C114	0.445000	0.555000	0.250000
H741	H74	0.413050	0.586950	0.250000
C1151	C115	0.592250	0.184500	0.250000
C1161	C116	0.540250	0.080500	0.250000
C1171	C117	0.445000	0.890000	0.250000
H751	H75	0.413050	0.826100	0.250000
C1181	C118	0.184500	0.592250	0.750000
C1191	C119	0.080500	0.540250	0.750000
C1201	C120	0.890000	0.445000	0.750000
H761	H76	0.826100	0.413050	0.750000
C1211	C121	0.407750	0.592250	0.750000
C1221	C122	0.459750	0.540250	0.750000
C1231	C123	0.555000	0.445000	0.750000
H771	H77	0.586950	0.413050	0.750000
C1241	C124	0.407750	0.815500	0.750000
C1251	C125	0.459750	0.919500	0.750000
C1261	C126	0.555000	0.110000	0.750000
H781	H78	0.586950	0.173900	0.750000
