data_YOYPUZ_clean_PM
_symmetry_space_group_name_H-M	'P1'
_cell_length_a	17.088000
_cell_length_b	17.088000
_cell_length_c	13.892000
_cell_angle_alpha	90.000000
_cell_angle_beta	90.000000
_cell_angle_gamma	120.000000
_symmetry_Int_Tables_number 1

loop_
_symmetry_equiv_pos_as_xyz
'x,y,z'

loop_
_atom_site_label
_atom_site_type_symbol
_atom_site_fract_x
_atom_site_fract_y
_atom_site_fract_z
O11	O1	0.646060	0.423890	0.181100
N11	N1	0.397440	0.506140	0.413270
N21	N2	0.333740	0.560340	0.514290
C11	C1	0.494100	0.458800	0.331820
H11	H1	0.494400	0.427900	0.386800
C21	C2	0.447400	0.504600	0.330720
C31	C3	0.390600	0.578300	0.442470
H21	H2	0.423100	0.635100	0.414400
C41	C4	0.301500	0.469600	0.534880
C51	C5	0.238900	0.413900	0.603700
H31	H3	0.212100	0.436000	0.645700
C61	C6	0.218400	0.325700	0.607000
H41	H4	0.177400	0.287600	0.652900
C71	C7	0.257200	0.290800	0.543200
H51	H5	0.241100	0.230200	0.547400
C81	C8	0.318700	0.344700	0.474500
H61	H6	0.344600	0.322100	0.432000
C91	C9	0.340000	0.433900	0.471970
O21	O2	0.576110	0.222170	0.181100
N31	N3	0.493860	0.891300	0.413270
N41	N4	0.439660	0.773400	0.514290
C101	C10	0.541200	0.035300	0.331820
H71	H7	0.572100	0.066500	0.386800
C111	C11	0.495400	0.942800	0.330720
C121	C12	0.421700	0.812300	0.442470
H81	H8	0.364900	0.788000	0.414400
C131	C13	0.530400	0.831900	0.534880
C141	C14	0.586100	0.825000	0.603700
H91	H9	0.564000	0.776100	0.645700
C151	C15	0.674300	0.892700	0.607000
H101	H10	0.712400	0.889800	0.652900
C161	C16	0.709200	0.966400	0.543200
H111	H11	0.769800	0.010900	0.547400
C171	C17	0.655300	0.974000	0.474500
H121	H12	0.677900	0.022500	0.432000
C181	C18	0.566100	0.906100	0.471970
O31	O3	0.777830	0.353940	0.181100
N51	N5	0.108700	0.602560	0.413270
N61	N6	0.226600	0.666260	0.514290
C191	C19	0.964700	0.505900	0.331820
H131	H13	0.933500	0.505600	0.386800
C201	C20	0.057200	0.552600	0.330720
C211	C21	0.187700	0.609400	0.442470
H141	H14	0.212000	0.576900	0.414400
C221	C22	0.168100	0.698500	0.534880
C231	C23	0.175000	0.761100	0.603700
H151	H15	0.223900	0.787900	0.645700
C241	C24	0.107300	0.781600	0.607000
H161	H16	0.110200	0.822600	0.652900
C251	C25	0.033600	0.742800	0.543200
H171	H17	0.989100	0.758900	0.547400
C261	C26	0.026000	0.681300	0.474500
H181	H18	0.977500	0.655400	0.432000
C271	C27	0.093900	0.660000	0.471970
O41	O4	0.576110	0.353940	0.318900
N71	N7	0.493860	0.602560	0.086730
N81	N8	0.439660	0.666260	0.985710
C281	C28	0.541200	0.505900	0.168180
H191	H19	0.572100	0.505600	0.113200
C291	C29	0.495400	0.552600	0.169280
C301	C30	0.421700	0.609400	0.057530
H201	H20	0.364900	0.576900	0.085600
C311	C31	0.530400	0.698500	0.965120
C321	C32	0.586100	0.761100	0.896300
H211	H21	0.564000	0.787900	0.854300
C331	C33	0.674300	0.781600	0.893000
H221	H22	0.712400	0.822600	0.847100
C341	C34	0.709200	0.742800	0.956800
H231	H23	0.769800	0.758900	0.952600
C351	C35	0.655300	0.681300	0.025500
H241	H24	0.677900	0.655400	0.068000
C361	C36	0.566100	0.660000	0.028030
O51	O5	0.777830	0.423890	0.318900
N91	N9	0.108700	0.506140	0.086730
N101	N10	0.226600	0.560340	0.985710
C371	C37	0.964700	0.458800	0.168180
H251	H25	0.933500	0.427900	0.113200
C381	C38	0.057200	0.504600	0.169280
C391	C39	0.187700	0.578300	0.057530
H261	H26	0.212000	0.635100	0.085600
C401	C40	0.168100	0.469600	0.965120
C411	C41	0.175000	0.413900	0.896300
H271	H27	0.223900	0.436000	0.854300
C421	C42	0.107300	0.325700	0.893000
H281	H28	0.110200	0.287600	0.847100
C431	C43	0.033600	0.290800	0.956800
H291	H29	0.989100	0.230200	0.952600
C441	C44	0.026000	0.344700	0.025500
H301	H30	0.977500	0.322100	0.068000
C451	C45	0.093900	0.433900	0.028030
O61	O6	0.646060	0.222170	0.318900
N111	N11	0.397440	0.891300	0.086730
N121	N12	0.333740	0.773400	0.985710
C461	C46	0.494100	0.035300	0.168180
H311	H31	0.494400	0.066500	0.113200
C471	C47	0.447400	0.942800	0.169280
C481	C48	0.390600	0.812300	0.057530
H321	H32	0.423100	0.788000	0.085600
C491	C49	0.301500	0.831900	0.965120
C501	C50	0.238900	0.825000	0.896300
H331	H33	0.212100	0.776100	0.854300
C511	C51	0.218400	0.892700	0.893000
H341	H34	0.177400	0.889800	0.847100
C521	C52	0.257200	0.966400	0.956800
H351	H35	0.241100	0.010900	0.952600
C531	C53	0.318700	0.974000	0.025500
H361	H36	0.344600	0.022500	0.068000
C541	C54	0.340000	0.906100	0.028030
O71	O7	0.353940	0.576110	0.818900
N131	N13	0.602560	0.493860	0.586730
N141	N14	0.666260	0.439660	0.485710
C551	C55	0.505900	0.541200	0.668180
H371	H37	0.505600	0.572100	0.613200
C561	C56	0.552600	0.495400	0.669280
C571	C57	0.609400	0.421700	0.557530
H381	H38	0.576900	0.364900	0.585600
C581	C58	0.698500	0.530400	0.465120
C591	C59	0.761100	0.586100	0.396300
H391	H39	0.787900	0.564000	0.354300
C601	C60	0.781600	0.674300	0.393000
H401	H40	0.822600	0.712400	0.347100
C611	C61	0.742800	0.709200	0.456800
H411	H41	0.758900	0.769800	0.452600
C621	C62	0.681300	0.655300	0.525500
H421	H42	0.655400	0.677900	0.568000
C631	C63	0.660000	0.566100	0.528030
O81	O8	0.423890	0.777830	0.818900
N151	N15	0.506140	0.108700	0.586730
N161	N16	0.560340	0.226600	0.485710
C641	C64	0.458800	0.964700	0.668180
H431	H43	0.427900	0.933500	0.613200
C651	C65	0.504600	0.057200	0.669280
C661	C66	0.578300	0.187700	0.557530
H441	H44	0.635100	0.212000	0.585600
C671	C67	0.469600	0.168100	0.465120
C681	C68	0.413900	0.175000	0.396300
H451	H45	0.436000	0.223900	0.354300
C691	C69	0.325700	0.107300	0.393000
H461	H46	0.287600	0.110200	0.347100
C701	C70	0.290800	0.033600	0.456800
H471	H47	0.230200	0.989100	0.452600
C711	C71	0.344700	0.026000	0.525500
H481	H48	0.322100	0.977500	0.568000
C721	C72	0.433900	0.093900	0.528030
O91	O9	0.222170	0.646060	0.818900
N171	N17	0.891300	0.397440	0.586730
N181	N18	0.773400	0.333740	0.485710
C731	C73	0.035300	0.494100	0.668180
H491	H49	0.066500	0.494400	0.613200
C741	C74	0.942800	0.447400	0.669280
C751	C75	0.812300	0.390600	0.557530
H501	H50	0.788000	0.423100	0.585600
C761	C76	0.831900	0.301500	0.465120
C771	C77	0.825000	0.238900	0.396300
H511	H51	0.776100	0.212100	0.354300
C781	C78	0.892700	0.218400	0.393000
H521	H52	0.889800	0.177400	0.347100
C791	C79	0.966400	0.257200	0.456800
H531	H53	0.010900	0.241100	0.452600
C801	C80	0.974000	0.318700	0.525500
H541	H54	0.022500	0.344600	0.568000
C811	C81	0.906100	0.340000	0.528030
O101	O10	0.423890	0.646060	0.681100
N191	N19	0.506140	0.397440	0.913270
N201	N20	0.560340	0.333740	0.014290
C821	C82	0.458800	0.494100	0.831820
H551	H55	0.427900	0.494400	0.886800
C831	C83	0.504600	0.447400	0.830720
C841	C84	0.578300	0.390600	0.942470
H561	H56	0.635100	0.423100	0.914400
C851	C85	0.469600	0.301500	0.034880
C861	C86	0.413900	0.238900	0.103700
H571	H57	0.436000	0.212100	0.145700
C871	C87	0.325700	0.218400	0.107000
H581	H58	0.287600	0.177400	0.152900
C881	C88	0.290800	0.257200	0.043200
H591	H59	0.230200	0.241100	0.047400
C891	C89	0.344700	0.318700	0.974500
H601	H60	0.322100	0.344600	0.932000
C901	C90	0.433900	0.340000	0.971970
O111	O11	0.222170	0.576110	0.681100
N211	N21	0.891300	0.493860	0.913270
N221	N22	0.773400	0.439660	0.014290
C911	C91	0.035300	0.541200	0.831820
H611	H61	0.066500	0.572100	0.886800
C921	C92	0.942800	0.495400	0.830720
C931	C93	0.812300	0.421700	0.942470
H621	H62	0.788000	0.364900	0.914400
C941	C94	0.831900	0.530400	0.034880
C951	C95	0.825000	0.586100	0.103700
H631	H63	0.776100	0.564000	0.145700
C961	C96	0.892700	0.674300	0.107000
H641	H64	0.889800	0.712400	0.152900
C971	C97	0.966400	0.709200	0.043200
H651	H65	0.010900	0.769800	0.047400
C981	C98	0.974000	0.655300	0.974500
H661	H66	0.022500	0.677900	0.932000
C991	C99	0.906100	0.566100	0.971970
O121	O12	0.353940	0.777830	0.681100
N231	N23	0.602560	0.108700	0.913270
N241	N24	0.666260	0.226600	0.014290
C1001	C100	0.505900	0.964700	0.831820
H671	H67	0.505600	0.933500	0.886800
C1011	C101	0.552600	0.057200	0.830720
C1021	C102	0.609400	0.187700	0.942470
H681	H68	0.576900	0.212000	0.914400
C1031	C103	0.698500	0.168100	0.034880
C1041	C104	0.761100	0.175000	0.103700
H691	H69	0.787900	0.223900	0.145700
C1051	C105	0.781600	0.107300	0.107000
H701	H70	0.822600	0.110200	0.152900
C1061	C106	0.742800	0.033600	0.043200
H711	H71	0.758900	0.989100	0.047400
C1071	C107	0.681300	0.026000	0.974500
H721	H72	0.655400	0.977500	0.932000
C1081	C108	0.660000	0.093900	0.971970
Co11	Co1	0.666670	0.333330	0.101860
Co21	Co2	0.666670	0.333330	0.398140
Co31	Co3	0.333330	0.666670	0.898140
Co41	Co4	0.333330	0.666670	0.601860
C1091	C109	0.591940	0.408060	0.250000
C1101	C110	0.541220	0.458780	0.250000
C1111	C111	0.447420	0.552580	0.250000
H731	H73	0.416000	0.584000	0.250000
C1121	C112	0.591940	0.183880	0.250000
C1131	C113	0.541220	0.082440	0.250000
C1141	C114	0.447420	0.894840	0.250000
H741	H74	0.416000	0.832000	0.250000
C1151	C115	0.816120	0.408060	0.250000
C1161	C116	0.917560	0.458780	0.250000
C1171	C117	0.105160	0.552580	0.250000
H751	H75	0.168000	0.584000	0.250000
C1181	C118	0.408060	0.591940	0.750000
C1191	C119	0.458780	0.541220	0.750000
C1201	C120	0.552580	0.447420	0.750000
H761	H76	0.584000	0.416000	0.750000
C1211	C121	0.408060	0.816120	0.750000
C1221	C122	0.458780	0.917560	0.750000
C1231	C123	0.552580	0.105160	0.750000
H771	H77	0.584000	0.168000	0.750000
C1241	C124	0.183880	0.591940	0.750000
C1251	C125	0.082440	0.541220	0.750000
C1261	C126	0.894840	0.447420	0.750000
H781	H78	0.832000	0.416000	0.750000
