data_YOYPIN_clean_PM
_symmetry_space_group_name_H-M	'P1'
_cell_length_a	16.901000
_cell_length_b	16.901000
_cell_length_c	14.082000
_cell_angle_alpha	90.000000
_cell_angle_beta	90.000000
_cell_angle_gamma	120.000000
_symmetry_Int_Tables_number 1

loop_
_symmetry_equiv_pos_as_xyz
'x,y,z'

loop_
_atom_site_label
_atom_site_type_symbol
_atom_site_fract_x
_atom_site_fract_y
_atom_site_fract_z
O11	O1	0.779000	0.354500	0.181600
N11	N1	0.111400	0.604700	0.411600
N21	N2	0.227500	0.666900	0.516000
C11	C1	0.967200	0.508000	0.329600
H11	H1	0.935500	0.508000	0.383500
C21	C2	0.061500	0.555900	0.329300
C31	C3	0.190700	0.612200	0.442900
H21	H2	0.217000	0.581000	0.414700
C41	C4	0.167800	0.699400	0.534500
C51	C5	0.172100	0.759000	0.605800
H31	H3	0.220100	0.784100	0.649100
C61	C6	0.103600	0.779200	0.609600
H41	H4	0.104800	0.818600	0.656500
C71	C7	0.030700	0.741300	0.543700
H51	H5	0.984600	0.756000	0.548400
C81	C8	0.026400	0.682700	0.471900
H61	H6	0.979500	0.659000	0.427200
C91	C9	0.094800	0.662000	0.470700
O21	O2	0.645500	0.424500	0.181600
N31	N3	0.395300	0.506700	0.411600
N41	N4	0.333100	0.560600	0.516000
C101	C10	0.492000	0.459200	0.329600
H71	H7	0.492000	0.427500	0.383500
C111	C11	0.444100	0.505600	0.329300
C121	C12	0.387800	0.578500	0.442900
H81	H8	0.419000	0.636000	0.414700
C131	C13	0.300600	0.468400	0.534500
C141	C14	0.241000	0.413100	0.605800
H91	H9	0.215900	0.436000	0.649100
C151	C15	0.220800	0.324400	0.609600
H101	H10	0.181400	0.286200	0.656500
C161	C16	0.258700	0.289400	0.543700
H111	H11	0.244000	0.228600	0.548400
C171	C17	0.317300	0.343700	0.471900
H121	H12	0.341000	0.320500	0.427200
C181	C18	0.338000	0.432800	0.470700
O31	O3	0.575500	0.221000	0.181600
N51	N5	0.493300	0.888600	0.411600
N61	N6	0.439400	0.772500	0.516000
C191	C19	0.540800	0.032800	0.329600
H131	H13	0.572500	0.064500	0.383500
C201	C20	0.494400	0.938500	0.329300
C211	C21	0.421500	0.809300	0.442900
H141	H14	0.364000	0.783000	0.414700
C221	C22	0.531600	0.832200	0.534500
C231	C23	0.586900	0.827900	0.605800
H151	H15	0.564000	0.779900	0.649100
C241	C24	0.675600	0.896400	0.609600
H161	H16	0.713800	0.895200	0.656500
C251	C25	0.710600	0.969300	0.543700
H171	H17	0.771400	0.015400	0.548400
C261	C26	0.656300	0.973600	0.471900
H181	H18	0.679500	0.020500	0.427200
C271	C27	0.567200	0.905200	0.470700
O41	O4	0.645500	0.221000	0.318400
N71	N7	0.395300	0.888600	0.088400
N81	N8	0.333100	0.772500	0.984000
C281	C28	0.492000	0.032800	0.170400
H191	H19	0.492000	0.064500	0.116500
C291	C29	0.444100	0.938500	0.170700
C301	C30	0.387800	0.809300	0.057100
H201	H20	0.419000	0.783000	0.085300
C311	C31	0.300600	0.832200	0.965500
C321	C32	0.241000	0.827900	0.894200
H211	H21	0.215900	0.779900	0.850900
C331	C33	0.220800	0.896400	0.890400
H221	H22	0.181400	0.895200	0.843500
C341	C34	0.258700	0.969300	0.956300
H231	H23	0.244000	0.015400	0.951600
C351	C35	0.317300	0.973600	0.028100
H241	H24	0.341000	0.020500	0.072800
C361	C36	0.338000	0.905200	0.029300
O51	O5	0.575500	0.354500	0.318400
N91	N9	0.493300	0.604700	0.088400
N101	N10	0.439400	0.666900	0.984000
C371	C37	0.540800	0.508000	0.170400
H251	H25	0.572500	0.508000	0.116500
C381	C38	0.494400	0.555900	0.170700
C391	C39	0.421500	0.612200	0.057100
H261	H26	0.364000	0.581000	0.085300
C401	C40	0.531600	0.699400	0.965500
C411	C41	0.586900	0.759000	0.894200
H271	H27	0.564000	0.784100	0.850900
C421	C42	0.675600	0.779200	0.890400
H281	H28	0.713800	0.818600	0.843500
C431	C43	0.710600	0.741300	0.956300
H291	H29	0.771400	0.756000	0.951600
C441	C44	0.656300	0.682700	0.028100
H301	H30	0.679500	0.659000	0.072800
C451	C45	0.567200	0.662000	0.029300
O61	O6	0.779000	0.424500	0.318400
N111	N11	0.111400	0.506700	0.088400
N121	N12	0.227500	0.560600	0.984000
C461	C46	0.967200	0.459200	0.170400
H311	H31	0.935500	0.427500	0.116500
C471	C47	0.061500	0.505600	0.170700
C481	C48	0.190700	0.578500	0.057100
H321	H32	0.217000	0.636000	0.085300
C491	C49	0.167800	0.468400	0.965500
C501	C50	0.172100	0.413100	0.894200
H331	H33	0.220100	0.436000	0.850900
C511	C51	0.103600	0.324400	0.890400
H341	H34	0.104800	0.286200	0.843500
C521	C52	0.030700	0.289400	0.956300
H351	H35	0.984600	0.228600	0.951600
C531	C53	0.026400	0.343700	0.028100
H361	H36	0.979500	0.320500	0.072800
C541	C54	0.094800	0.432800	0.029300
O71	O7	0.221000	0.645500	0.818400
N131	N13	0.888600	0.395300	0.588400
N141	N14	0.772500	0.333100	0.484000
C551	C55	0.032800	0.492000	0.670400
H371	H37	0.064500	0.492000	0.616500
C561	C56	0.938500	0.444100	0.670700
C571	C57	0.809300	0.387800	0.557100
H381	H38	0.783000	0.419000	0.585300
C581	C58	0.832200	0.300600	0.465500
C591	C59	0.827900	0.241000	0.394200
H391	H39	0.779900	0.215900	0.350900
C601	C60	0.896400	0.220800	0.390400
H401	H40	0.895200	0.181400	0.343500
C611	C61	0.969300	0.258700	0.456300
H411	H41	0.015400	0.244000	0.451600
C621	C62	0.973600	0.317300	0.528100
H421	H42	0.020500	0.341000	0.572800
C631	C63	0.905200	0.338000	0.529300
O81	O8	0.354500	0.575500	0.818400
N151	N15	0.604700	0.493300	0.588400
N161	N16	0.666900	0.439400	0.484000
C641	C64	0.508000	0.540800	0.670400
H431	H43	0.508000	0.572500	0.616500
C651	C65	0.555900	0.494400	0.670700
C661	C66	0.612200	0.421500	0.557100
H441	H44	0.581000	0.364000	0.585300
C671	C67	0.699400	0.531600	0.465500
C681	C68	0.759000	0.586900	0.394200
H451	H45	0.784100	0.564000	0.350900
C691	C69	0.779200	0.675600	0.390400
H461	H46	0.818600	0.713800	0.343500
C701	C70	0.741300	0.710600	0.456300
H471	H47	0.756000	0.771400	0.451600
C711	C71	0.682700	0.656300	0.528100
H481	H48	0.659000	0.679500	0.572800
C721	C72	0.662000	0.567200	0.529300
O91	O9	0.424500	0.779000	0.818400
N171	N17	0.506700	0.111400	0.588400
N181	N18	0.560600	0.227500	0.484000
C731	C73	0.459200	0.967200	0.670400
H491	H49	0.427500	0.935500	0.616500
C741	C74	0.505600	0.061500	0.670700
C751	C75	0.578500	0.190700	0.557100
H501	H50	0.636000	0.217000	0.585300
C761	C76	0.468400	0.167800	0.465500
C771	C77	0.413100	0.172100	0.394200
H511	H51	0.436000	0.220100	0.350900
C781	C78	0.324400	0.103600	0.390400
H521	H52	0.286200	0.104800	0.343500
C791	C79	0.289400	0.030700	0.456300
H531	H53	0.228600	0.984600	0.451600
C801	C80	0.343700	0.026400	0.528100
H541	H54	0.320500	0.979500	0.572800
C811	C81	0.432800	0.094800	0.529300
O101	O10	0.354500	0.779000	0.681600
N191	N19	0.604700	0.111400	0.911600
N201	N20	0.666900	0.227500	0.016000
C821	C82	0.508000	0.967200	0.829600
H551	H55	0.508000	0.935500	0.883500
C831	C83	0.555900	0.061500	0.829300
C841	C84	0.612200	0.190700	0.942900
H561	H56	0.581000	0.217000	0.914700
C851	C85	0.699400	0.167800	0.034500
C861	C86	0.759000	0.172100	0.105800
H571	H57	0.784100	0.220100	0.149100
C871	C87	0.779200	0.103600	0.109600
H581	H58	0.818600	0.104800	0.156500
C881	C88	0.741300	0.030700	0.043700
H591	H59	0.756000	0.984600	0.048400
C891	C89	0.682700	0.026400	0.971900
H601	H60	0.659000	0.979500	0.927200
C901	C90	0.662000	0.094800	0.970700
O111	O11	0.424500	0.645500	0.681600
N211	N21	0.506700	0.395300	0.911600
N221	N22	0.560600	0.333100	0.016000
C911	C91	0.459200	0.492000	0.829600
H611	H61	0.427500	0.492000	0.883500
C921	C92	0.505600	0.444100	0.829300
C931	C93	0.578500	0.387800	0.942900
H621	H62	0.636000	0.419000	0.914700
C941	C94	0.468400	0.300600	0.034500
C951	C95	0.413100	0.241000	0.105800
H631	H63	0.436000	0.215900	0.149100
C961	C96	0.324400	0.220800	0.109600
H641	H64	0.286200	0.181400	0.156500
C971	C97	0.289400	0.258700	0.043700
H651	H65	0.228600	0.244000	0.048400
C981	C98	0.343700	0.317300	0.971900
H661	H66	0.320500	0.341000	0.927200
C991	C99	0.432800	0.338000	0.970700
O121	O12	0.221000	0.575500	0.681600
N231	N23	0.888600	0.493300	0.911600
N241	N24	0.772500	0.439400	0.016000
C1001	C100	0.032800	0.540800	0.829600
H671	H67	0.064500	0.572500	0.883500
C1011	C101	0.938500	0.494400	0.829300
C1021	C102	0.809300	0.421500	0.942900
H681	H68	0.783000	0.364000	0.914700
C1031	C103	0.832200	0.531600	0.034500
C1041	C104	0.827900	0.586900	0.105800
H691	H69	0.779900	0.564000	0.149100
C1051	C105	0.896400	0.675600	0.109600
H701	H70	0.895200	0.713800	0.156500
C1061	C106	0.969300	0.710600	0.043700
H711	H71	0.015400	0.771400	0.048400
C1071	C107	0.973600	0.656300	0.971900
H721	H72	0.020500	0.679500	0.927200
C1081	C108	0.905200	0.567200	0.970700
Co11	Co1	0.666670	0.333330	0.103790
Co21	Co2	0.666670	0.333330	0.396210
Co31	Co3	0.333330	0.666670	0.896210
Co41	Co4	0.333330	0.666670	0.603790
C1091	C109	0.816900	0.408450	0.250000
C1101	C110	0.920000	0.460000	0.250000
C1111	C111	0.108700	0.554350	0.250000
H731	H73	0.172300	0.586150	0.250000
C1121	C112	0.591550	0.408450	0.250000
C1131	C113	0.540000	0.460000	0.250000
C1141	C114	0.445650	0.554350	0.250000
H741	H74	0.413850	0.586150	0.250000
C1151	C115	0.591550	0.183100	0.250000
C1161	C116	0.540000	0.080000	0.250000
C1171	C117	0.445650	0.891300	0.250000
H751	H75	0.413850	0.827700	0.250000
C1181	C118	0.183100	0.591550	0.750000
C1191	C119	0.080000	0.540000	0.750000
C1201	C120	0.891300	0.445650	0.750000
H761	H76	0.827700	0.413850	0.750000
C1211	C121	0.408450	0.591550	0.750000
C1221	C122	0.460000	0.540000	0.750000
C1231	C123	0.554350	0.445650	0.750000
H771	H77	0.586150	0.413850	0.750000
C1241	C124	0.408450	0.816900	0.750000
C1251	C125	0.460000	0.920000	0.750000
C1261	C126	0.554350	0.108700	0.750000
H781	H78	0.586150	0.172300	0.750000
