data_YOYQIO_clean_PM
_symmetry_space_group_name_H-M	'P1'
_cell_length_a	17.872000
_cell_length_b	28.462000
_cell_length_c	14.146400
_cell_angle_alpha	90.000000
_cell_angle_beta	91.662000
_cell_angle_gamma	90.000000
_symmetry_Int_Tables_number 1

loop_
_symmetry_equiv_pos_as_xyz
'x,y,z'

loop_
_atom_site_label
_atom_site_type_symbol
_atom_site_fract_x
_atom_site_fract_y
_atom_site_fract_z
Mn11	Mn1	0.002180	0.175190	0.604560
O11	O1	0.034660	0.114710	0.685200
N11	N1	0.951900	0.231370	0.507800
N21	N2	0.106840	0.173590	0.514600
O21	O2	0.900200	0.187000	0.675470
O31	O3	0.069670	0.222470	0.687030
N31	N3	0.949800	0.116920	0.510300
C11	C1	0.886200	0.212440	0.746000
C21	C2	0.808600	0.231880	0.748700
C31	C3	0.977100	0.018200	0.828900
C41	C4	0.785300	0.254800	0.829500
C51	C5	0.759500	0.227370	0.670200
H11	H1	0.962500	0.034500	0.882300
C61	C6	0.976400	0.969510	0.827300
H21	H2	0.817700	0.257700	0.881700
C71	C7	0.714700	0.273070	0.832100
H31	H3	0.774700	0.212100	0.615900
C81	C8	0.688800	0.245690	0.674300
N41	N4	0.953050	0.943330	0.909200
N51	N5	0.689180	0.298000	0.914000
C91	C9	0.664900	0.269690	0.754300
N61	N6	0.637700	0.243080	0.594500
C101	C10	0.983800	0.901820	0.939200
C111	C11	0.893100	0.951950	0.966700
C121	C12	0.728700	0.329580	0.970500
C131	C13	0.617200	0.298590	0.943700
H41	H4	0.617400	0.283000	0.755700
C141	C14	0.593300	0.279010	0.563400
C151	C15	0.618000	0.205240	0.538900
H51	H5	0.025100	0.888200	0.911600
C161	C16	0.891700	0.913860	0.029900
C171	C17	0.840100	0.988010	0.967700
C181	C18	0.677000	0.347010	0.034100
C191	C19	0.802700	0.345100	0.971400
H61	H6	0.579100	0.280700	0.915700
H71	H7	0.594900	0.308700	0.590800
C201	C20	0.562900	0.221630	0.474800
C211	C21	0.639000	0.159000	0.542000
C221	C22	0.837700	0.911200	0.099000
C231	C23	0.785600	0.984100	0.034900
H81	H8	0.841300	0.013100	0.925700
C241	C24	0.697800	0.380530	0.101500
C251	C25	0.821800	0.379200	0.037400
H91	H9	0.837300	0.333300	0.929800
C261	C26	0.529100	0.191200	0.410400
H101	H10	0.675500	0.148300	0.585100
C271	C27	0.603800	0.129100	0.478500
H111	H11	0.836700	0.886500	0.142000
C281	C28	0.785800	0.947100	0.100200
H121	H12	0.748000	0.006700	0.036800
C291	C29	0.770700	0.396000	0.102800
H131	H13	0.663700	0.392000	0.144100
H141	H14	0.870100	0.391300	0.038500
C301	C30	0.550900	0.145400	0.412200
H151	H15	0.492600	0.201700	0.367200
H161	H16	0.615700	0.097300	0.479900
H171	H17	0.749500	0.946700	0.146100
H181	H18	0.786400	0.418000	0.147800
H191	H19	0.530000	0.124500	0.368200
Mn21	Mn2	0.502180	0.675190	0.604560
O41	O4	0.534660	0.614710	0.685200
N71	N7	0.451900	0.731370	0.507800
N81	N8	0.606840	0.673590	0.514600
O51	O5	0.400200	0.687000	0.675470
O61	O6	0.569670	0.722470	0.687030
N91	N9	0.449800	0.616920	0.510300
C311	C31	0.386200	0.712440	0.746000
C321	C32	0.308600	0.731880	0.748700
C331	C33	0.477100	0.518200	0.828900
C341	C34	0.285300	0.754800	0.829500
C351	C35	0.259500	0.727370	0.670200
H201	H20	0.462500	0.534500	0.882300
C361	C36	0.476400	0.469510	0.827300
H211	H21	0.317700	0.757700	0.881700
C371	C37	0.214700	0.773070	0.832100
H221	H22	0.274700	0.712100	0.615900
C381	C38	0.188800	0.745690	0.674300
N101	N10	0.453050	0.443330	0.909200
N111	N11	0.189180	0.798000	0.914000
C391	C39	0.164900	0.769690	0.754300
N121	N12	0.137700	0.743080	0.594500
C401	C40	0.483800	0.401820	0.939200
C411	C41	0.393100	0.451950	0.966700
C421	C42	0.228700	0.829580	0.970500
C431	C43	0.117200	0.798590	0.943700
H231	H23	0.117400	0.783000	0.755700
C441	C44	0.093300	0.779010	0.563400
C451	C45	0.118000	0.705240	0.538900
H241	H24	0.525100	0.388200	0.911600
C461	C46	0.391700	0.413860	0.029900
C471	C47	0.340100	0.488010	0.967700
C481	C48	0.177000	0.847010	0.034100
C491	C49	0.302700	0.845100	0.971400
H251	H25	0.079100	0.780700	0.915700
H261	H26	0.094900	0.808700	0.590800
C501	C50	0.062900	0.721630	0.474800
C511	C51	0.139000	0.659000	0.542000
C521	C52	0.337700	0.411200	0.099000
C531	C53	0.285600	0.484100	0.034900
H271	H27	0.341300	0.513100	0.925700
C541	C54	0.197800	0.880530	0.101500
C551	C55	0.321800	0.879200	0.037400
H281	H28	0.337300	0.833300	0.929800
C561	C56	0.029100	0.691200	0.410400
H291	H29	0.175500	0.648300	0.585100
C571	C57	0.103800	0.629100	0.478500
H301	H30	0.336700	0.386500	0.142000
C581	C58	0.285800	0.447100	0.100200
H311	H31	0.248000	0.506700	0.036800
C591	C59	0.270700	0.896000	0.102800
H321	H32	0.163700	0.892000	0.144100
H331	H33	0.370100	0.891300	0.038500
C601	C60	0.050900	0.645400	0.412200
H341	H34	0.992600	0.701700	0.367200
H351	H35	0.115700	0.597300	0.479900
H361	H36	0.249500	0.446700	0.146100
H371	H37	0.286400	0.918000	0.147800
H381	H38	0.030000	0.624500	0.368200
Mn31	Mn3	0.997820	0.175190	0.895440
O71	O7	0.965340	0.114710	0.814800
N131	N13	0.048100	0.231370	0.992200
N141	N14	0.893160	0.173590	0.985400
O81	O8	0.099800	0.187000	0.824530
O91	O9	0.930330	0.222470	0.812970
N151	N15	0.050200	0.116920	0.989700
C611	C61	0.113800	0.212440	0.754000
C621	C62	0.191400	0.231880	0.751300
C631	C63	0.022900	0.018200	0.671100
C641	C64	0.214700	0.254800	0.670500
C651	C65	0.240500	0.227370	0.829800
H391	H39	0.037500	0.034500	0.617700
C661	C66	0.023600	0.969510	0.672700
H401	H40	0.182300	0.257700	0.618300
C671	C67	0.285300	0.273070	0.667900
H411	H41	0.225300	0.212100	0.884100
C681	C68	0.311200	0.245690	0.825700
N161	N16	0.046950	0.943330	0.590800
N171	N17	0.310820	0.298000	0.586000
C691	C69	0.335100	0.269690	0.745700
N181	N18	0.362300	0.243080	0.905500
C701	C70	0.016200	0.901820	0.560800
C711	C71	0.106900	0.951950	0.533300
C721	C72	0.271300	0.329580	0.529500
C731	C73	0.382800	0.298590	0.556300
H421	H42	0.382600	0.283000	0.744300
C741	C74	0.406700	0.279010	0.936600
C751	C75	0.382000	0.205240	0.961100
H431	H43	0.974900	0.888200	0.588400
C761	C76	0.108300	0.913860	0.470100
C771	C77	0.159900	0.988010	0.532300
C781	C78	0.323000	0.347010	0.465900
C791	C79	0.197300	0.345100	0.528600
H441	H44	0.420900	0.280700	0.584300
H451	H45	0.405100	0.308700	0.909200
C801	C80	0.437100	0.221630	0.025200
C811	C81	0.361000	0.159000	0.958000
C821	C82	0.162300	0.911200	0.401000
C831	C83	0.214400	0.984100	0.465100
H461	H46	0.158700	0.013100	0.574300
C841	C84	0.302200	0.380530	0.398500
C851	C85	0.178200	0.379200	0.462600
H471	H47	0.162700	0.333300	0.570200
C861	C86	0.470900	0.191200	0.089600
H481	H48	0.324500	0.148300	0.914900
C871	C87	0.396200	0.129100	0.021500
H491	H49	0.163300	0.886500	0.358000
C881	C88	0.214200	0.947100	0.399800
H501	H50	0.252000	0.006700	0.463200
C891	C89	0.229300	0.396000	0.397200
H511	H51	0.336300	0.392000	0.355900
H521	H52	0.129900	0.391300	0.461500
C901	C90	0.449100	0.145400	0.087800
H531	H53	0.507400	0.201700	0.132800
H541	H54	0.384300	0.097300	0.020100
H551	H55	0.250500	0.946700	0.353900
H561	H56	0.213600	0.418000	0.352200
H571	H57	0.470000	0.124500	0.131800
Mn41	Mn4	0.497820	0.675190	0.895440
O101	O10	0.465340	0.614710	0.814800
N191	N19	0.548100	0.731370	0.992200
N201	N20	0.393160	0.673590	0.985400
O111	O11	0.599800	0.687000	0.824530
O121	O12	0.430330	0.722470	0.812970
N211	N21	0.550200	0.616920	0.989700
C911	C91	0.613800	0.712440	0.754000
C921	C92	0.691400	0.731880	0.751300
C931	C93	0.522900	0.518200	0.671100
C941	C94	0.714700	0.754800	0.670500
C951	C95	0.740500	0.727370	0.829800
H581	H58	0.537500	0.534500	0.617700
C961	C96	0.523600	0.469510	0.672700
H591	H59	0.682300	0.757700	0.618300
C971	C97	0.785300	0.773070	0.667900
H601	H60	0.725300	0.712100	0.884100
C981	C98	0.811200	0.745690	0.825700
N221	N22	0.546950	0.443330	0.590800
N231	N23	0.810820	0.798000	0.586000
C991	C99	0.835100	0.769690	0.745700
N241	N24	0.862300	0.743080	0.905500
C1001	C100	0.516200	0.401820	0.560800
C1011	C101	0.606900	0.451950	0.533300
C1021	C102	0.771300	0.829580	0.529500
C1031	C103	0.882800	0.798590	0.556300
H611	H61	0.882600	0.783000	0.744300
C1041	C104	0.906700	0.779010	0.936600
C1051	C105	0.882000	0.705240	0.961100
H621	H62	0.474900	0.388200	0.588400
C1061	C106	0.608300	0.413860	0.470100
C1071	C107	0.659900	0.488010	0.532300
C1081	C108	0.823000	0.847010	0.465900
C1091	C109	0.697300	0.845100	0.528600
H631	H63	0.920900	0.780700	0.584300
H641	H64	0.905100	0.808700	0.909200
C1101	C110	0.937100	0.721630	0.025200
C1111	C111	0.861000	0.659000	0.958000
C1121	C112	0.662300	0.411200	0.401000
C1131	C113	0.714400	0.484100	0.465100
H651	H65	0.658700	0.513100	0.574300
C1141	C114	0.802200	0.880530	0.398500
C1151	C115	0.678200	0.879200	0.462600
H661	H66	0.662700	0.833300	0.570200
C1161	C116	0.970900	0.691200	0.089600
H671	H67	0.824500	0.648300	0.914900
C1171	C117	0.896200	0.629100	0.021500
H681	H68	0.663300	0.386500	0.358000
C1181	C118	0.714200	0.447100	0.399800
H691	H69	0.752000	0.506700	0.463200
C1191	C119	0.729300	0.896000	0.397200
H701	H70	0.836300	0.892000	0.355900
H711	H71	0.629900	0.891300	0.461500
C1201	C120	0.949100	0.645400	0.087800
H721	H72	0.007400	0.701700	0.132800
H731	H73	0.884300	0.597300	0.020100
H741	H74	0.750500	0.446700	0.353900
H751	H75	0.713600	0.918000	0.352200
H761	H76	0.970000	0.624500	0.131800
Mn51	Mn5	0.997820	0.824810	0.395440
O131	O13	0.965340	0.885290	0.314800
N251	N25	0.048100	0.768630	0.492200
N261	N26	0.893160	0.826410	0.485400
O141	O14	0.099800	0.813000	0.324530
O151	O15	0.930330	0.777530	0.312970
N271	N27	0.050200	0.883080	0.489700
C1211	C121	0.113800	0.787560	0.254000
C1221	C122	0.191400	0.768120	0.251300
C1231	C123	0.022900	0.981800	0.171100
C1241	C124	0.214700	0.745200	0.170500
C1251	C125	0.240500	0.772630	0.329800
H771	H77	0.037500	0.965500	0.117700
C1261	C126	0.023600	0.030490	0.172700
H781	H78	0.182300	0.742300	0.118300
C1271	C127	0.285300	0.726930	0.167900
H791	H79	0.225300	0.787900	0.384100
C1281	C128	0.311200	0.754310	0.325700
N281	N28	0.046950	0.056670	0.090800
N291	N29	0.310820	0.702000	0.086000
C1291	C129	0.335100	0.730310	0.245700
N301	N30	0.362300	0.756920	0.405500
C1301	C130	0.016200	0.098180	0.060800
C1311	C131	0.106900	0.048050	0.033300
C1321	C132	0.271300	0.670420	0.029500
C1331	C133	0.382800	0.701410	0.056300
H801	H80	0.382600	0.717000	0.244300
C1341	C134	0.406700	0.720990	0.436600
C1351	C135	0.382000	0.794760	0.461100
H811	H81	0.974900	0.111800	0.088400
C1361	C136	0.108300	0.086140	0.970100
C1371	C137	0.159900	0.011990	0.032300
C1381	C138	0.323000	0.652990	0.965900
C1391	C139	0.197300	0.654900	0.028600
H821	H82	0.420900	0.719300	0.084300
H831	H83	0.405100	0.691300	0.409200
C1401	C140	0.437100	0.778370	0.525200
C1411	C141	0.361000	0.841000	0.458000
C1421	C142	0.162300	0.088800	0.901000
C1431	C143	0.214400	0.015900	0.965100
H841	H84	0.158700	0.986900	0.074300
C1441	C144	0.302200	0.619470	0.898500
C1451	C145	0.178200	0.620800	0.962600
H851	H85	0.162700	0.666700	0.070200
C1461	C146	0.470900	0.808800	0.589600
H861	H86	0.324500	0.851700	0.414900
C1471	C147	0.396200	0.870900	0.521500
H871	H87	0.163300	0.113500	0.858000
C1481	C148	0.214200	0.052900	0.899800
H881	H88	0.252000	0.993300	0.963200
C1491	C149	0.229300	0.604000	0.897200
H891	H89	0.336300	0.608000	0.855900
H901	H90	0.129900	0.608700	0.961500
C1501	C150	0.449100	0.854600	0.587800
H911	H91	0.507400	0.798300	0.632800
H921	H92	0.384300	0.902700	0.520100
H931	H93	0.250500	0.053300	0.853900
H941	H94	0.213600	0.582000	0.852200
H951	H95	0.470000	0.875500	0.631800
Mn61	Mn6	0.497820	0.324810	0.395440
O161	O16	0.465340	0.385290	0.314800
N311	N31	0.548100	0.268630	0.492200
N321	N32	0.393160	0.326410	0.485400
O171	O17	0.599800	0.313000	0.324530
O181	O18	0.430330	0.277530	0.312970
N331	N33	0.550200	0.383080	0.489700
C1511	C151	0.613800	0.287560	0.254000
C1521	C152	0.691400	0.268120	0.251300
C1531	C153	0.522900	0.481800	0.171100
C1541	C154	0.714700	0.245200	0.170500
C1551	C155	0.740500	0.272630	0.329800
H961	H96	0.537500	0.465500	0.117700
C1561	C156	0.523600	0.530490	0.172700
H971	H97	0.682300	0.242300	0.118300
C1571	C157	0.785300	0.226930	0.167900
H981	H98	0.725300	0.287900	0.384100
C1581	C158	0.811200	0.254310	0.325700
N341	N34	0.546950	0.556670	0.090800
N351	N35	0.810820	0.202000	0.086000
C1591	C159	0.835100	0.230310	0.245700
N361	N36	0.862300	0.256920	0.405500
C1601	C160	0.516200	0.598180	0.060800
C1611	C161	0.606900	0.548050	0.033300
C1621	C162	0.771300	0.170420	0.029500
C1631	C163	0.882800	0.201410	0.056300
H991	H99	0.882600	0.217000	0.244300
C1641	C164	0.906700	0.220990	0.436600
C1651	C165	0.882000	0.294760	0.461100
H1001	H100	0.474900	0.611800	0.088400
C1661	C166	0.608300	0.586140	0.970100
C1671	C167	0.659900	0.511990	0.032300
C1681	C168	0.823000	0.152990	0.965900
C1691	C169	0.697300	0.154900	0.028600
H1011	H101	0.920900	0.219300	0.084300
H1021	H102	0.905100	0.191300	0.409200
C1701	C170	0.937100	0.278370	0.525200
C1711	C171	0.861000	0.341000	0.458000
C1721	C172	0.662300	0.588800	0.901000
C1731	C173	0.714400	0.515900	0.965100
H1031	H103	0.658700	0.486900	0.074300
C1741	C174	0.802200	0.119470	0.898500
C1751	C175	0.678200	0.120800	0.962600
H1041	H104	0.662700	0.166700	0.070200
C1761	C176	0.970900	0.308800	0.589600
H1051	H105	0.824500	0.351700	0.414900
C1771	C177	0.896200	0.370900	0.521500
H1061	H106	0.663300	0.613500	0.858000
C1781	C178	0.714200	0.552900	0.899800
H1071	H107	0.752000	0.493300	0.963200
C1791	C179	0.729300	0.104000	0.897200
H1081	H108	0.836300	0.108000	0.855900
H1091	H109	0.629900	0.108700	0.961500
C1801	C180	0.949100	0.354600	0.587800
H1101	H110	0.007400	0.298300	0.632800
H1111	H111	0.884300	0.402700	0.520100
H1121	H112	0.750500	0.553300	0.853900
H1131	H113	0.713600	0.082000	0.852200
H1141	H114	0.970000	0.375500	0.631800
Mn71	Mn7	0.002180	0.824810	0.104560
O191	O19	0.034660	0.885290	0.185200
N371	N37	0.951900	0.768630	0.007800
N381	N38	0.106840	0.826410	0.014600
O201	O20	0.900200	0.813000	0.175470
O211	O21	0.069670	0.777530	0.187030
N391	N39	0.949800	0.883080	0.010300
C1811	C181	0.886200	0.787560	0.246000
C1821	C182	0.808600	0.768120	0.248700
C1831	C183	0.977100	0.981800	0.328900
C1841	C184	0.785300	0.745200	0.329500
C1851	C185	0.759500	0.772630	0.170200
H1151	H115	0.962500	0.965500	0.382300
C1861	C186	0.976400	0.030490	0.327300
H1161	H116	0.817700	0.742300	0.381700
C1871	C187	0.714700	0.726930	0.332100
H1171	H117	0.774700	0.787900	0.115900
C1881	C188	0.688800	0.754310	0.174300
N401	N40	0.953050	0.056670	0.409200
N411	N41	0.689180	0.702000	0.414000
C1891	C189	0.664900	0.730310	0.254300
N421	N42	0.637700	0.756920	0.094500
C1901	C190	0.983800	0.098180	0.439200
C1911	C191	0.893100	0.048050	0.466700
C1921	C192	0.728700	0.670420	0.470500
C1931	C193	0.617200	0.701410	0.443700
H1181	H118	0.617400	0.717000	0.255700
C1941	C194	0.593300	0.720990	0.063400
C1951	C195	0.618000	0.794760	0.038900
H1191	H119	0.025100	0.111800	0.411600
C1961	C196	0.891700	0.086140	0.529900
C1971	C197	0.840100	0.011990	0.467700
C1981	C198	0.677000	0.652990	0.534100
C1991	C199	0.802700	0.654900	0.471400
H1201	H120	0.579100	0.719300	0.415700
H1211	H121	0.594900	0.691300	0.090800
C2001	C200	0.562900	0.778370	0.974800
C2011	C201	0.639000	0.841000	0.042000
C2021	C202	0.837700	0.088800	0.599000
C2031	C203	0.785600	0.015900	0.534900
H1221	H122	0.841300	0.986900	0.425700
C2041	C204	0.697800	0.619470	0.601500
C2051	C205	0.821800	0.620800	0.537400
H1231	H123	0.837300	0.666700	0.429800
C2061	C206	0.529100	0.808800	0.910400
H1241	H124	0.675500	0.851700	0.085100
C2071	C207	0.603800	0.870900	0.978500
H1251	H125	0.836700	0.113500	0.642000
C2081	C208	0.785800	0.052900	0.600200
H1261	H126	0.748000	0.993300	0.536800
C2091	C209	0.770700	0.604000	0.602800
H1271	H127	0.663700	0.608000	0.644100
H1281	H128	0.870100	0.608700	0.538500
C2101	C210	0.550900	0.854600	0.912200
H1291	H129	0.492600	0.798300	0.867200
H1301	H130	0.615700	0.902700	0.979900
H1311	H131	0.749500	0.053300	0.646100
H1321	H132	0.786400	0.582000	0.647800
H1331	H133	0.530000	0.875500	0.868200
Mn81	Mn8	0.502180	0.324810	0.104560
O221	O22	0.534660	0.385290	0.185200
N431	N43	0.451900	0.268630	0.007800
N441	N44	0.606840	0.326410	0.014600
O231	O23	0.400200	0.313000	0.175470
O241	O24	0.569670	0.277530	0.187030
N451	N45	0.449800	0.383080	0.010300
C2111	C211	0.386200	0.287560	0.246000
C2121	C212	0.308600	0.268120	0.248700
C2131	C213	0.477100	0.481800	0.328900
C2141	C214	0.285300	0.245200	0.329500
C2151	C215	0.259500	0.272630	0.170200
H1341	H134	0.462500	0.465500	0.382300
C2161	C216	0.476400	0.530490	0.327300
H1351	H135	0.317700	0.242300	0.381700
C2171	C217	0.214700	0.226930	0.332100
H1361	H136	0.274700	0.287900	0.115900
C2181	C218	0.188800	0.254310	0.174300
N461	N46	0.453050	0.556670	0.409200
N471	N47	0.189180	0.202000	0.414000
C2191	C219	0.164900	0.230310	0.254300
N481	N48	0.137700	0.256920	0.094500
C2201	C220	0.483800	0.598180	0.439200
C2211	C221	0.393100	0.548050	0.466700
C2221	C222	0.228700	0.170420	0.470500
C2231	C223	0.117200	0.201410	0.443700
H1371	H137	0.117400	0.217000	0.255700
C2241	C224	0.093300	0.220990	0.063400
C2251	C225	0.118000	0.294760	0.038900
H1381	H138	0.525100	0.611800	0.411600
C2261	C226	0.391700	0.586140	0.529900
C2271	C227	0.340100	0.511990	0.467700
C2281	C228	0.177000	0.152990	0.534100
C2291	C229	0.302700	0.154900	0.471400
H1391	H139	0.079100	0.219300	0.415700
H1401	H140	0.094900	0.191300	0.090800
C2301	C230	0.062900	0.278370	0.974800
C2311	C231	0.139000	0.341000	0.042000
C2321	C232	0.337700	0.588800	0.599000
C2331	C233	0.285600	0.515900	0.534900
H1411	H141	0.341300	0.486900	0.425700
C2341	C234	0.197800	0.119470	0.601500
C2351	C235	0.321800	0.120800	0.537400
H1421	H142	0.337300	0.166700	0.429800
C2361	C236	0.029100	0.308800	0.910400
H1431	H143	0.175500	0.351700	0.085100
C2371	C237	0.103800	0.370900	0.978500
H1441	H144	0.336700	0.613500	0.642000
C2381	C238	0.285800	0.552900	0.600200
H1451	H145	0.248000	0.493300	0.536800
C2391	C239	0.270700	0.104000	0.602800
H1461	H146	0.163700	0.108000	0.644100
H1471	H147	0.370100	0.108700	0.538500
C2401	C240	0.050900	0.354600	0.912200
H1481	H148	0.992600	0.298300	0.867200
H1491	H149	0.115700	0.402700	0.979900
H1501	H150	0.249500	0.553300	0.646100
H1511	H151	0.286400	0.082000	0.647800
H1521	H152	0.030000	0.375500	0.868200
C2411	C241	0.000000	0.094600	0.750000
C2421	C242	0.000000	0.042200	0.750000
C2431	C243	0.000000	0.944500	0.750000
H1531	H153	0.000000	0.911800	0.750000
C2441	C244	0.500000	0.594600	0.750000
C2451	C245	0.500000	0.542200	0.750000
C2461	C246	0.500000	0.444500	0.750000
H1541	H154	0.500000	0.411800	0.750000
C2471	C247	0.000000	0.905400	0.250000
C2481	C248	0.000000	0.957800	0.250000
C2491	C249	0.000000	0.055500	0.250000
H1551	H155	0.000000	0.088200	0.250000
C2501	C250	0.500000	0.405400	0.250000
C2511	C251	0.500000	0.457800	0.250000
C2521	C252	0.500000	0.555500	0.250000
H1561	H156	0.500000	0.588200	0.250000
