data_YOYQOU_clean_PM
_symmetry_space_group_name_H-M	'P1'
_cell_length_a	17.966000
_cell_length_b	27.989000
_cell_length_c	14.141000
_cell_angle_alpha	90.000000
_cell_angle_beta	92.381000
_cell_angle_gamma	90.000000
_symmetry_Int_Tables_number 1

loop_
_symmetry_equiv_pos_as_xyz
'x,y,z'

loop_
_atom_site_label
_atom_site_type_symbol
_atom_site_fract_x
_atom_site_fract_y
_atom_site_fract_z
Mn11	Mn1	0.004140	0.178250	0.106810
O11	O1	0.036500	0.116500	0.187200
N11	N1	0.958100	0.235900	0.007000
N21	N2	0.107900	0.175800	0.018100
O21	O2	0.899500	0.190400	0.168600
O31	O3	0.070800	0.225900	0.191800
N31	N3	0.951800	0.119300	0.011100
C11	C1	0.884500	0.214700	0.241400
C21	C2	0.805000	0.231200	0.246100
C31	C3	0.024300	0.017400	0.171300
C41	C4	0.754600	0.224900	0.169800
C51	C5	0.783200	0.254800	0.327200
H11	H1	0.040200	0.034000	0.118900
C61	C6	0.024500	0.968100	0.172200
C71	C7	0.682700	0.241500	0.176400
H21	H2	0.769200	0.209800	0.115000
C81	C8	0.711200	0.271400	0.331600
H31	H3	0.817000	0.259300	0.378100
N41	N4	0.046800	0.941600	0.092800
N51	N5	0.630500	0.238000	0.097800
C91	C9	0.660600	0.265000	0.255600
N61	N6	0.688000	0.296100	0.413800
C101	C10	0.014600	0.900300	0.060200
C111	C11	0.108500	0.949600	0.037400
C121	C12	0.607500	0.198200	0.045400
C131	C13	0.588900	0.275400	0.063500
H41	H4	0.612200	0.276600	0.258500
C141	C14	0.726400	0.331000	0.466200
C151	C15	0.618400	0.294100	0.447500
H51	H5	0.972500	0.887200	0.086100
C161	C16	0.108200	0.911300	0.972200
C171	C17	0.164300	0.983500	0.041000
C181	C18	0.627800	0.150500	0.050900
C191	C19	0.552800	0.215100	0.979400
H61	H6	0.593200	0.306200	0.087700
C201	C20	0.797000	0.350900	0.460000
C211	C21	0.675600	0.348000	0.531300
H71	H7	0.581600	0.273600	0.423400
C221	C22	0.163100	0.908300	0.906400
C231	C23	0.218400	0.980200	0.976100
H81	H8	0.165000	0.007800	0.085800
H91	H9	0.663700	0.139700	0.095000
C241	C24	0.591800	0.120000	0.987300
C251	C25	0.518400	0.184000	0.914400
H101	H10	0.830100	0.339900	0.416100
C261	C26	0.816000	0.387400	0.521000
C271	C27	0.696400	0.383900	0.594900
H111	H11	0.163300	0.883800	0.862100
C281	C28	0.217600	0.943400	0.909000
H121	H12	0.256400	0.002700	0.976600
C291	C29	0.537700	0.136200	0.919600
H131	H13	0.603700	0.087600	0.989200
H141	H14	0.483700	0.195000	0.868900
C301	C30	0.767000	0.403500	0.588400
H151	H15	0.862500	0.401800	0.517500
H161	H16	0.664100	0.394500	0.640200
H171	H17	0.254600	0.942400	0.865100
H181	H18	0.514700	0.114500	0.878000
H191	H19	0.782000	0.427800	0.629700
Mn21	Mn2	0.504140	0.678250	0.106810
O41	O4	0.536500	0.616500	0.187200
N71	N7	0.458100	0.735900	0.007000
N81	N8	0.607900	0.675800	0.018100
O51	O5	0.399500	0.690400	0.168600
O61	O6	0.570800	0.725900	0.191800
N91	N9	0.451800	0.619300	0.011100
C311	C31	0.384500	0.714700	0.241400
C321	C32	0.305000	0.731200	0.246100
C331	C33	0.524300	0.517400	0.171300
C341	C34	0.254600	0.724900	0.169800
C351	C35	0.283200	0.754800	0.327200
H201	H20	0.540200	0.534000	0.118900
C361	C36	0.524500	0.468100	0.172200
C371	C37	0.182700	0.741500	0.176400
H211	H21	0.269200	0.709800	0.115000
C381	C38	0.211200	0.771400	0.331600
H221	H22	0.317000	0.759300	0.378100
N101	N10	0.546800	0.441600	0.092800
N111	N11	0.130500	0.738000	0.097800
C391	C39	0.160600	0.765000	0.255600
N121	N12	0.188000	0.796100	0.413800
C401	C40	0.514600	0.400300	0.060200
C411	C41	0.608500	0.449600	0.037400
C421	C42	0.107500	0.698200	0.045400
C431	C43	0.088900	0.775400	0.063500
H231	H23	0.112200	0.776600	0.258500
C441	C44	0.226400	0.831000	0.466200
C451	C45	0.118400	0.794100	0.447500
H241	H24	0.472500	0.387200	0.086100
C461	C46	0.608200	0.411300	0.972200
C471	C47	0.664300	0.483500	0.041000
C481	C48	0.127800	0.650500	0.050900
C491	C49	0.052800	0.715100	0.979400
H251	H25	0.093200	0.806200	0.087700
C501	C50	0.297000	0.850900	0.460000
C511	C51	0.175600	0.848000	0.531300
H261	H26	0.081600	0.773600	0.423400
C521	C52	0.663100	0.408300	0.906400
C531	C53	0.718400	0.480200	0.976100
H271	H27	0.665000	0.507800	0.085800
H281	H28	0.163700	0.639700	0.095000
C541	C54	0.091800	0.620000	0.987300
C551	C55	0.018400	0.684000	0.914400
H291	H29	0.330100	0.839900	0.416100
C561	C56	0.316000	0.887400	0.521000
C571	C57	0.196400	0.883900	0.594900
H301	H30	0.663300	0.383800	0.862100
C581	C58	0.717600	0.443400	0.909000
H311	H31	0.756400	0.502700	0.976600
C591	C59	0.037700	0.636200	0.919600
H321	H32	0.103700	0.587600	0.989200
H331	H33	0.983700	0.695000	0.868900
C601	C60	0.267000	0.903500	0.588400
H341	H34	0.362500	0.901800	0.517500
H351	H35	0.164100	0.894500	0.640200
H361	H36	0.754600	0.442400	0.865100
H371	H37	0.014700	0.614500	0.878000
H381	H38	0.282000	0.927800	0.629700
Mn31	Mn3	0.995860	0.178250	0.393190
O71	O7	0.963500	0.116500	0.312800
N131	N13	0.041900	0.235900	0.493000
N141	N14	0.892100	0.175800	0.481900
O81	O8	0.100500	0.190400	0.331400
O91	O9	0.929200	0.225900	0.308200
N151	N15	0.048200	0.119300	0.488900
C611	C61	0.115500	0.214700	0.258600
C621	C62	0.195000	0.231200	0.253900
C631	C63	0.975700	0.017400	0.328700
C641	C64	0.245400	0.224900	0.330200
C651	C65	0.216800	0.254800	0.172800
H391	H39	0.959800	0.034000	0.381100
C661	C66	0.975500	0.968100	0.327800
C671	C67	0.317300	0.241500	0.323600
H401	H40	0.230800	0.209800	0.385000
C681	C68	0.288800	0.271400	0.168400
H411	H41	0.183000	0.259300	0.121900
N161	N16	0.953200	0.941600	0.407200
N171	N17	0.369500	0.238000	0.402200
C691	C69	0.339400	0.265000	0.244400
N181	N18	0.312000	0.296100	0.086200
C701	C70	0.985400	0.900300	0.439800
C711	C71	0.891500	0.949600	0.462600
C721	C72	0.392500	0.198200	0.454600
C731	C73	0.411100	0.275400	0.436500
H421	H42	0.387800	0.276600	0.241500
C741	C74	0.273600	0.331000	0.033800
C751	C75	0.381600	0.294100	0.052500
H431	H43	0.027500	0.887200	0.413900
C761	C76	0.891800	0.911300	0.527800
C771	C77	0.835700	0.983500	0.459000
C781	C78	0.372200	0.150500	0.449100
C791	C79	0.447200	0.215100	0.520600
H441	H44	0.406800	0.306200	0.412300
C801	C80	0.203000	0.350900	0.040000
C811	C81	0.324400	0.348000	0.968700
H451	H45	0.418400	0.273600	0.076600
C821	C82	0.836900	0.908300	0.593600
C831	C83	0.781600	0.980200	0.523900
H461	H46	0.835000	0.007800	0.414200
H471	H47	0.336300	0.139700	0.405000
C841	C84	0.408200	0.120000	0.512700
C851	C85	0.481600	0.184000	0.585600
H481	H48	0.169900	0.339900	0.083900
C861	C86	0.184000	0.387400	0.979000
C871	C87	0.303600	0.383900	0.905100
H491	H49	0.836700	0.883800	0.637900
C881	C88	0.782400	0.943400	0.591000
H501	H50	0.743600	0.002700	0.523400
C891	C89	0.462300	0.136200	0.580400
H511	H51	0.396300	0.087600	0.510800
H521	H52	0.516300	0.195000	0.631100
C901	C90	0.233000	0.403500	0.911600
H531	H53	0.137500	0.401800	0.982500
H541	H54	0.335900	0.394500	0.859800
H551	H55	0.745400	0.942400	0.634900
H561	H56	0.485300	0.114500	0.622000
H571	H57	0.218000	0.427800	0.870300
Mn41	Mn4	0.495860	0.678250	0.393190
O101	O10	0.463500	0.616500	0.312800
N191	N19	0.541900	0.735900	0.493000
N201	N20	0.392100	0.675800	0.481900
O111	O11	0.600500	0.690400	0.331400
O121	O12	0.429200	0.725900	0.308200
N211	N21	0.548200	0.619300	0.488900
C911	C91	0.615500	0.714700	0.258600
C921	C92	0.695000	0.731200	0.253900
C931	C93	0.475700	0.517400	0.328700
C941	C94	0.745400	0.724900	0.330200
C951	C95	0.716800	0.754800	0.172800
H581	H58	0.459800	0.534000	0.381100
C961	C96	0.475500	0.468100	0.327800
C971	C97	0.817300	0.741500	0.323600
H591	H59	0.730800	0.709800	0.385000
C981	C98	0.788800	0.771400	0.168400
H601	H60	0.683000	0.759300	0.121900
N221	N22	0.453200	0.441600	0.407200
N231	N23	0.869500	0.738000	0.402200
C991	C99	0.839400	0.765000	0.244400
N241	N24	0.812000	0.796100	0.086200
C1001	C100	0.485400	0.400300	0.439800
C1011	C101	0.391500	0.449600	0.462600
C1021	C102	0.892500	0.698200	0.454600
C1031	C103	0.911100	0.775400	0.436500
H611	H61	0.887800	0.776600	0.241500
C1041	C104	0.773600	0.831000	0.033800
C1051	C105	0.881600	0.794100	0.052500
H621	H62	0.527500	0.387200	0.413900
C1061	C106	0.391800	0.411300	0.527800
C1071	C107	0.335700	0.483500	0.459000
C1081	C108	0.872200	0.650500	0.449100
C1091	C109	0.947200	0.715100	0.520600
H631	H63	0.906800	0.806200	0.412300
C1101	C110	0.703000	0.850900	0.040000
C1111	C111	0.824400	0.848000	0.968700
H641	H64	0.918400	0.773600	0.076600
C1121	C112	0.336900	0.408300	0.593600
C1131	C113	0.281600	0.480200	0.523900
H651	H65	0.335000	0.507800	0.414200
H661	H66	0.836300	0.639700	0.405000
C1141	C114	0.908200	0.620000	0.512700
C1151	C115	0.981600	0.684000	0.585600
H671	H67	0.669900	0.839900	0.083900
C1161	C116	0.684000	0.887400	0.979000
C1171	C117	0.803600	0.883900	0.905100
H681	H68	0.336700	0.383800	0.637900
C1181	C118	0.282400	0.443400	0.591000
H691	H69	0.243600	0.502700	0.523400
C1191	C119	0.962300	0.636200	0.580400
H701	H70	0.896300	0.587600	0.510800
H711	H71	0.016300	0.695000	0.631100
C1201	C120	0.733000	0.903500	0.911600
H721	H72	0.637500	0.901800	0.982500
H731	H73	0.835900	0.894500	0.859800
H741	H74	0.245400	0.442400	0.634900
H751	H75	0.985300	0.614500	0.622000
H761	H76	0.718000	0.927800	0.870300
Mn51	Mn5	0.995860	0.821750	0.893190
O131	O13	0.963500	0.883500	0.812800
N251	N25	0.041900	0.764100	0.993000
N261	N26	0.892100	0.824200	0.981900
O141	O14	0.100500	0.809600	0.831400
O151	O15	0.929200	0.774100	0.808200
N271	N27	0.048200	0.880700	0.988900
C1211	C121	0.115500	0.785300	0.758600
C1221	C122	0.195000	0.768800	0.753900
C1231	C123	0.975700	0.982600	0.828700
C1241	C124	0.245400	0.775100	0.830200
C1251	C125	0.216800	0.745200	0.672800
H771	H77	0.959800	0.966000	0.881100
C1261	C126	0.975500	0.031900	0.827800
C1271	C127	0.317300	0.758500	0.823600
H781	H78	0.230800	0.790200	0.885000
C1281	C128	0.288800	0.728600	0.668400
H791	H79	0.183000	0.740700	0.621900
N281	N28	0.953200	0.058400	0.907200
N291	N29	0.369500	0.762000	0.902200
C1291	C129	0.339400	0.735000	0.744400
N301	N30	0.312000	0.703900	0.586200
C1301	C130	0.985400	0.099700	0.939800
C1311	C131	0.891500	0.050400	0.962600
C1321	C132	0.392500	0.801800	0.954600
C1331	C133	0.411100	0.724600	0.936500
H801	H80	0.387800	0.723400	0.741500
C1341	C134	0.273600	0.669000	0.533800
C1351	C135	0.381600	0.705900	0.552500
H811	H81	0.027500	0.112800	0.913900
C1361	C136	0.891800	0.088700	0.027800
C1371	C137	0.835700	0.016500	0.959000
C1381	C138	0.372200	0.849500	0.949100
C1391	C139	0.447200	0.784900	0.020600
H821	H82	0.406800	0.693800	0.912300
C1401	C140	0.203000	0.649100	0.540000
C1411	C141	0.324400	0.652000	0.468700
H831	H83	0.418400	0.726400	0.576600
C1421	C142	0.836900	0.091700	0.093600
C1431	C143	0.781600	0.019800	0.023900
H841	H84	0.835000	0.992200	0.914200
H851	H85	0.336300	0.860300	0.905000
C1441	C144	0.408200	0.880000	0.012700
C1451	C145	0.481600	0.816000	0.085600
H861	H86	0.169900	0.660100	0.583900
C1461	C146	0.184000	0.612600	0.479000
C1471	C147	0.303600	0.616100	0.405100
H871	H87	0.836700	0.116200	0.137900
C1481	C148	0.782400	0.056600	0.091000
H881	H88	0.743600	0.997300	0.023400
C1491	C149	0.462300	0.863800	0.080400
H891	H89	0.396300	0.912400	0.010800
H901	H90	0.516300	0.805000	0.131100
C1501	C150	0.233000	0.596500	0.411600
H911	H91	0.137500	0.598200	0.482500
H921	H92	0.335900	0.605500	0.359800
H931	H93	0.745400	0.057600	0.134900
H941	H94	0.485300	0.885500	0.122000
H951	H95	0.218000	0.572200	0.370300
Mn61	Mn6	0.495860	0.321750	0.893190
O161	O16	0.463500	0.383500	0.812800
N311	N31	0.541900	0.264100	0.993000
N321	N32	0.392100	0.324200	0.981900
O171	O17	0.600500	0.309600	0.831400
O181	O18	0.429200	0.274100	0.808200
N331	N33	0.548200	0.380700	0.988900
C1511	C151	0.615500	0.285300	0.758600
C1521	C152	0.695000	0.268800	0.753900
C1531	C153	0.475700	0.482600	0.828700
C1541	C154	0.745400	0.275100	0.830200
C1551	C155	0.716800	0.245200	0.672800
H961	H96	0.459800	0.466000	0.881100
C1561	C156	0.475500	0.531900	0.827800
C1571	C157	0.817300	0.258500	0.823600
H971	H97	0.730800	0.290200	0.885000
C1581	C158	0.788800	0.228600	0.668400
H981	H98	0.683000	0.240700	0.621900
N341	N34	0.453200	0.558400	0.907200
N351	N35	0.869500	0.262000	0.902200
C1591	C159	0.839400	0.235000	0.744400
N361	N36	0.812000	0.203900	0.586200
C1601	C160	0.485400	0.599700	0.939800
C1611	C161	0.391500	0.550400	0.962600
C1621	C162	0.892500	0.301800	0.954600
C1631	C163	0.911100	0.224600	0.936500
H991	H99	0.887800	0.223400	0.741500
C1641	C164	0.773600	0.169000	0.533800
C1651	C165	0.881600	0.205900	0.552500
H1001	H100	0.527500	0.612800	0.913900
C1661	C166	0.391800	0.588700	0.027800
C1671	C167	0.335700	0.516500	0.959000
C1681	C168	0.872200	0.349500	0.949100
C1691	C169	0.947200	0.284900	0.020600
H1011	H101	0.906800	0.193800	0.912300
C1701	C170	0.703000	0.149100	0.540000
C1711	C171	0.824400	0.152000	0.468700
H1021	H102	0.918400	0.226400	0.576600
C1721	C172	0.336900	0.591700	0.093600
C1731	C173	0.281600	0.519800	0.023900
H1031	H103	0.335000	0.492200	0.914200
H1041	H104	0.836300	0.360300	0.905000
C1741	C174	0.908200	0.380000	0.012700
C1751	C175	0.981600	0.316000	0.085600
H1051	H105	0.669900	0.160100	0.583900
C1761	C176	0.684000	0.112600	0.479000
C1771	C177	0.803600	0.116100	0.405100
H1061	H106	0.336700	0.616200	0.137900
C1781	C178	0.282400	0.556600	0.091000
H1071	H107	0.243600	0.497300	0.023400
C1791	C179	0.962300	0.363800	0.080400
H1081	H108	0.896300	0.412400	0.010800
H1091	H109	0.016300	0.305000	0.131100
C1801	C180	0.733000	0.096500	0.411600
H1101	H110	0.637500	0.098200	0.482500
H1111	H111	0.835900	0.105500	0.359800
H1121	H112	0.245400	0.557600	0.134900
H1131	H113	0.985300	0.385500	0.122000
H1141	H114	0.718000	0.072200	0.370300
Mn71	Mn7	0.004140	0.821750	0.606810
O191	O19	0.036500	0.883500	0.687200
N371	N37	0.958100	0.764100	0.507000
N381	N38	0.107900	0.824200	0.518100
O201	O20	0.899500	0.809600	0.668600
O211	O21	0.070800	0.774100	0.691800
N391	N39	0.951800	0.880700	0.511100
C1811	C181	0.884500	0.785300	0.741400
C1821	C182	0.805000	0.768800	0.746100
C1831	C183	0.024300	0.982600	0.671300
C1841	C184	0.754600	0.775100	0.669800
C1851	C185	0.783200	0.745200	0.827200
H1151	H115	0.040200	0.966000	0.618900
C1861	C186	0.024500	0.031900	0.672200
C1871	C187	0.682700	0.758500	0.676400
H1161	H116	0.769200	0.790200	0.615000
C1881	C188	0.711200	0.728600	0.831600
H1171	H117	0.817000	0.740700	0.878100
N401	N40	0.046800	0.058400	0.592800
N411	N41	0.630500	0.762000	0.597800
C1891	C189	0.660600	0.735000	0.755600
N421	N42	0.688000	0.703900	0.913800
C1901	C190	0.014600	0.099700	0.560200
C1911	C191	0.108500	0.050400	0.537400
C1921	C192	0.607500	0.801800	0.545400
C1931	C193	0.588900	0.724600	0.563500
H1181	H118	0.612200	0.723400	0.758500
C1941	C194	0.726400	0.669000	0.966200
C1951	C195	0.618400	0.705900	0.947500
H1191	H119	0.972500	0.112800	0.586100
C1961	C196	0.108200	0.088700	0.472200
C1971	C197	0.164300	0.016500	0.541000
C1981	C198	0.627800	0.849500	0.550900
C1991	C199	0.552800	0.784900	0.479400
H1201	H120	0.593200	0.693800	0.587700
C2001	C200	0.797000	0.649100	0.960000
C2011	C201	0.675600	0.652000	0.031300
H1211	H121	0.581600	0.726400	0.923400
C2021	C202	0.163100	0.091700	0.406400
C2031	C203	0.218400	0.019800	0.476100
H1221	H122	0.165000	0.992200	0.585800
H1231	H123	0.663700	0.860300	0.595000
C2041	C204	0.591800	0.880000	0.487300
C2051	C205	0.518400	0.816000	0.414400
H1241	H124	0.830100	0.660100	0.916100
C2061	C206	0.816000	0.612600	0.021000
C2071	C207	0.696400	0.616100	0.094900
H1251	H125	0.163300	0.116200	0.362100
C2081	C208	0.217600	0.056600	0.409000
H1261	H126	0.256400	0.997300	0.476600
C2091	C209	0.537700	0.863800	0.419600
H1271	H127	0.603700	0.912400	0.489200
H1281	H128	0.483700	0.805000	0.368900
C2101	C210	0.767000	0.596500	0.088400
H1291	H129	0.862500	0.598200	0.017500
H1301	H130	0.664100	0.605500	0.140200
H1311	H131	0.254600	0.057600	0.365100
H1321	H132	0.514700	0.885500	0.378000
H1331	H133	0.782000	0.572200	0.129700
Mn81	Mn8	0.504140	0.321750	0.606810
O221	O22	0.536500	0.383500	0.687200
N431	N43	0.458100	0.264100	0.507000
N441	N44	0.607900	0.324200	0.518100
O231	O23	0.399500	0.309600	0.668600
O241	O24	0.570800	0.274100	0.691800
N451	N45	0.451800	0.380700	0.511100
C2111	C211	0.384500	0.285300	0.741400
C2121	C212	0.305000	0.268800	0.746100
C2131	C213	0.524300	0.482600	0.671300
C2141	C214	0.254600	0.275100	0.669800
C2151	C215	0.283200	0.245200	0.827200
H1341	H134	0.540200	0.466000	0.618900
C2161	C216	0.524500	0.531900	0.672200
C2171	C217	0.182700	0.258500	0.676400
H1351	H135	0.269200	0.290200	0.615000
C2181	C218	0.211200	0.228600	0.831600
H1361	H136	0.317000	0.240700	0.878100
N461	N46	0.546800	0.558400	0.592800
N471	N47	0.130500	0.262000	0.597800
C2191	C219	0.160600	0.235000	0.755600
N481	N48	0.188000	0.203900	0.913800
C2201	C220	0.514600	0.599700	0.560200
C2211	C221	0.608500	0.550400	0.537400
C2221	C222	0.107500	0.301800	0.545400
C2231	C223	0.088900	0.224600	0.563500
H1371	H137	0.112200	0.223400	0.758500
C2241	C224	0.226400	0.169000	0.966200
C2251	C225	0.118400	0.205900	0.947500
H1381	H138	0.472500	0.612800	0.586100
C2261	C226	0.608200	0.588700	0.472200
C2271	C227	0.664300	0.516500	0.541000
C2281	C228	0.127800	0.349500	0.550900
C2291	C229	0.052800	0.284900	0.479400
H1391	H139	0.093200	0.193800	0.587700
C2301	C230	0.297000	0.149100	0.960000
C2311	C231	0.175600	0.152000	0.031300
H1401	H140	0.081600	0.226400	0.923400
C2321	C232	0.663100	0.591700	0.406400
C2331	C233	0.718400	0.519800	0.476100
H1411	H141	0.665000	0.492200	0.585800
H1421	H142	0.163700	0.360300	0.595000
C2341	C234	0.091800	0.380000	0.487300
C2351	C235	0.018400	0.316000	0.414400
H1431	H143	0.330100	0.160100	0.916100
C2361	C236	0.316000	0.112600	0.021000
C2371	C237	0.196400	0.116100	0.094900
H1441	H144	0.663300	0.616200	0.362100
C2381	C238	0.717600	0.556600	0.409000
H1451	H145	0.756400	0.497300	0.476600
C2391	C239	0.037700	0.363800	0.419600
H1461	H146	0.103700	0.412400	0.489200
H1471	H147	0.983700	0.305000	0.368900
C2401	C240	0.267000	0.096500	0.088400
H1481	H148	0.362500	0.098200	0.017500
H1491	H149	0.164100	0.105500	0.140200
H1501	H150	0.754600	0.557600	0.365100
H1511	H151	0.014700	0.385500	0.378000
H1521	H152	0.282000	0.072200	0.129700
C2411	C241	0.000000	0.095900	0.250000
C2421	C242	0.000000	0.042300	0.250000
C2431	C243	0.000000	0.942800	0.250000
H1531	H153	0.000000	0.909600	0.250000
C2441	C244	0.500000	0.595900	0.250000
C2451	C245	0.500000	0.542300	0.250000
C2461	C246	0.500000	0.442800	0.250000
H1541	H154	0.500000	0.409600	0.250000
C2471	C247	0.000000	0.904100	0.750000
C2481	C248	0.000000	0.957700	0.750000
C2491	C249	0.000000	0.057200	0.750000
H1551	H155	0.000000	0.090400	0.750000
C2501	C250	0.500000	0.404100	0.750000
C2511	C251	0.500000	0.457700	0.750000
C2521	C252	0.500000	0.557200	0.750000
H1561	H156	0.500000	0.590400	0.750000
