data_YOYQEK_clean_PM
_symmetry_space_group_name_H-M	'P1'
_cell_length_a	16.975000
_cell_length_b	16.975000
_cell_length_c	13.917000
_cell_angle_alpha	90.000000
_cell_angle_beta	90.000000
_cell_angle_gamma	120.000000
_symmetry_Int_Tables_number 1

loop_
_symmetry_equiv_pos_as_xyz
'x,y,z'

loop_
_atom_site_label
_atom_site_type_symbol
_atom_site_fract_x
_atom_site_fract_y
_atom_site_fract_z
O11	O1	0.779600	0.424500	0.681100
N11	N1	0.111900	0.503800	0.911600
N21	N2	0.228300	0.559800	0.014800
C11	C1	0.966000	0.456400	0.830900
H11	H1	0.934300	0.423200	0.884800
C21	C2	0.060600	0.503500	0.830100
C31	C3	0.189400	0.577900	0.943600
H21	H2	0.212400	0.635700	0.917400
C41	C4	0.174200	0.466200	0.031100
C51	C5	0.183900	0.409100	0.095500
H31	H3	0.231000	0.432200	0.140100
C61	C6	0.122000	0.317400	0.091300
H41	H4	0.127100	0.278200	0.134100
C71	C7	0.051000	0.282000	0.023300
H51	H5	0.011500	0.219500	0.020700
C81	C8	0.038700	0.337800	0.960500
H61	H6	0.990800	0.314300	0.916900
C91	C9	0.101000	0.430400	0.965000
O21	O2	0.575500	0.355100	0.681100
N31	N3	0.496200	0.608100	0.911600
N41	N4	0.440200	0.668500	0.014800
C101	C10	0.543600	0.509600	0.830900
H71	H7	0.576800	0.511100	0.884800
C111	C11	0.496500	0.557100	0.830100
C121	C12	0.422100	0.611500	0.943600
H81	H8	0.364300	0.576700	0.917400
C131	C13	0.533800	0.708000	0.031100
C141	C14	0.590900	0.774800	0.095500
H91	H9	0.567800	0.798800	0.140100
C151	C15	0.682600	0.804600	0.091300
H101	H10	0.721800	0.848900	0.134100
C161	C16	0.718000	0.769000	0.023300
H111	H11	0.780500	0.792000	0.020700
C171	C17	0.662200	0.700900	0.960500
H121	H12	0.685700	0.676500	0.916900
C181	C18	0.569600	0.670600	0.965000
O31	O3	0.644900	0.220400	0.681100
N51	N5	0.391900	0.888100	0.911600
N61	N6	0.331500	0.771700	0.014800
C191	C19	0.490400	0.034000	0.830900
H131	H13	0.488900	0.065700	0.884800
C201	C20	0.442900	0.939400	0.830100
C211	C21	0.388500	0.810600	0.943600
H141	H14	0.423300	0.787600	0.917400
C221	C22	0.292000	0.825800	0.031100
C231	C23	0.225200	0.816100	0.095500
H151	H15	0.201200	0.769000	0.140100
C241	C24	0.195400	0.878000	0.091300
H161	H16	0.151100	0.872900	0.134100
C251	C25	0.231000	0.949000	0.023300
H171	H17	0.208000	0.988500	0.020700
C261	C26	0.299100	0.961300	0.960500
H181	H18	0.323500	0.009200	0.916900
C271	C27	0.329400	0.899000	0.965000
O41	O4	0.575500	0.220400	0.818900
N71	N7	0.496200	0.888100	0.588400
N81	N8	0.440200	0.771700	0.485200
C281	C28	0.543600	0.034000	0.669100
H191	H19	0.576800	0.065700	0.615200
C291	C29	0.496500	0.939400	0.669900
C301	C30	0.422100	0.810600	0.556400
H201	H20	0.364300	0.787600	0.582600
C311	C31	0.533800	0.825800	0.468900
C321	C32	0.590900	0.816100	0.404500
H211	H21	0.567800	0.769000	0.359900
C331	C33	0.682600	0.878000	0.408700
H221	H22	0.721800	0.872900	0.365900
C341	C34	0.718000	0.949000	0.476700
H231	H23	0.780500	0.988500	0.479300
C351	C35	0.662200	0.961300	0.539500
H241	H24	0.685700	0.009200	0.583100
C361	C36	0.569600	0.899000	0.535000
O51	O5	0.644900	0.424500	0.818900
N91	N9	0.391900	0.503800	0.588400
N101	N10	0.331500	0.559800	0.485200
C371	C37	0.490400	0.456400	0.669100
H251	H25	0.488900	0.423200	0.615200
C381	C38	0.442900	0.503500	0.669900
C391	C39	0.388500	0.577900	0.556400
H261	H26	0.423300	0.635700	0.582600
C401	C40	0.292000	0.466200	0.468900
C411	C41	0.225200	0.409100	0.404500
H271	H27	0.201200	0.432200	0.359900
C421	C42	0.195400	0.317400	0.408700
H281	H28	0.151100	0.278200	0.365900
C431	C43	0.231000	0.282000	0.476700
H291	H29	0.208000	0.219500	0.479300
C441	C44	0.299100	0.337800	0.539500
H301	H30	0.323500	0.314300	0.583100
C451	C45	0.329400	0.430400	0.535000
O61	O6	0.779600	0.355100	0.818900
N111	N11	0.111900	0.608100	0.588400
N121	N12	0.228300	0.668500	0.485200
C461	C46	0.966000	0.509600	0.669100
H311	H31	0.934300	0.511100	0.615200
C471	C47	0.060600	0.557100	0.669900
C481	C48	0.189400	0.611500	0.556400
H321	H32	0.212400	0.576700	0.582600
C491	C49	0.174200	0.708000	0.468900
C501	C50	0.183900	0.774800	0.404500
H331	H33	0.231000	0.798800	0.359900
C511	C51	0.122000	0.804600	0.408700
H341	H34	0.127100	0.848900	0.365900
C521	C52	0.051000	0.769000	0.476700
H351	H35	0.011500	0.792000	0.479300
C531	C53	0.038700	0.700900	0.539500
H361	H36	0.990800	0.676500	0.583100
C541	C54	0.101000	0.670600	0.535000
O71	O7	0.220400	0.575500	0.318900
N131	N13	0.888100	0.496200	0.088400
N141	N14	0.771700	0.440200	0.985200
C551	C55	0.034000	0.543600	0.169100
H371	H37	0.065700	0.576800	0.115200
C561	C56	0.939400	0.496500	0.169900
C571	C57	0.810600	0.422100	0.056400
H381	H38	0.787600	0.364300	0.082600
C581	C58	0.825800	0.533800	0.968900
C591	C59	0.816100	0.590900	0.904500
H391	H39	0.769000	0.567800	0.859900
C601	C60	0.878000	0.682600	0.908700
H401	H40	0.872900	0.721800	0.865900
C611	C61	0.949000	0.718000	0.976700
H411	H41	0.988500	0.780500	0.979300
C621	C62	0.961300	0.662200	0.039500
H421	H42	0.009200	0.685700	0.083100
C631	C63	0.899000	0.569600	0.035000
O81	O8	0.424500	0.644900	0.318900
N151	N15	0.503800	0.391900	0.088400
N161	N16	0.559800	0.331500	0.985200
C641	C64	0.456400	0.490400	0.169100
H431	H43	0.423200	0.488900	0.115200
C651	C65	0.503500	0.442900	0.169900
C661	C66	0.577900	0.388500	0.056400
H441	H44	0.635700	0.423300	0.082600
C671	C67	0.466200	0.292000	0.968900
C681	C68	0.409100	0.225200	0.904500
H451	H45	0.432200	0.201200	0.859900
C691	C69	0.317400	0.195400	0.908700
H461	H46	0.278200	0.151100	0.865900
C701	C70	0.282000	0.231000	0.976700
H471	H47	0.219500	0.208000	0.979300
C711	C71	0.337800	0.299100	0.039500
H481	H48	0.314300	0.323500	0.083100
C721	C72	0.430400	0.329400	0.035000
O91	O9	0.355100	0.779600	0.318900
N171	N17	0.608100	0.111900	0.088400
N181	N18	0.668500	0.228300	0.985200
C731	C73	0.509600	0.966000	0.169100
H491	H49	0.511100	0.934300	0.115200
C741	C74	0.557100	0.060600	0.169900
C751	C75	0.611500	0.189400	0.056400
H501	H50	0.576700	0.212400	0.082600
C761	C76	0.708000	0.174200	0.968900
C771	C77	0.774800	0.183900	0.904500
H511	H51	0.798800	0.231000	0.859900
C781	C78	0.804600	0.122000	0.908700
H521	H52	0.848900	0.127100	0.865900
C791	C79	0.769000	0.051000	0.976700
H531	H53	0.792000	0.011500	0.979300
C801	C80	0.700900	0.038700	0.039500
H541	H54	0.676500	0.990800	0.083100
C811	C81	0.670600	0.101000	0.035000
O101	O10	0.424500	0.779600	0.181100
N191	N19	0.503800	0.111900	0.411600
N201	N20	0.559800	0.228300	0.514800
C821	C82	0.456400	0.966000	0.330900
H551	H55	0.423200	0.934300	0.384800
C831	C83	0.503500	0.060600	0.330100
C841	C84	0.577900	0.189400	0.443600
H561	H56	0.635700	0.212400	0.417400
C851	C85	0.466200	0.174200	0.531100
C861	C86	0.409100	0.183900	0.595500
H571	H57	0.432200	0.231000	0.640100
C871	C87	0.317400	0.122000	0.591300
H581	H58	0.278200	0.127100	0.634100
C881	C88	0.282000	0.051000	0.523300
H591	H59	0.219500	0.011500	0.520700
C891	C89	0.337800	0.038700	0.460500
H601	H60	0.314300	0.990800	0.416900
C901	C90	0.430400	0.101000	0.465000
O111	O11	0.355100	0.575500	0.181100
N211	N21	0.608100	0.496200	0.411600
N221	N22	0.668500	0.440200	0.514800
C911	C91	0.509600	0.543600	0.330900
H611	H61	0.511100	0.576800	0.384800
C921	C92	0.557100	0.496500	0.330100
C931	C93	0.611500	0.422100	0.443600
H621	H62	0.576700	0.364300	0.417400
C941	C94	0.708000	0.533800	0.531100
C951	C95	0.774800	0.590900	0.595500
H631	H63	0.798800	0.567800	0.640100
C961	C96	0.804600	0.682600	0.591300
H641	H64	0.848900	0.721800	0.634100
C971	C97	0.769000	0.718000	0.523300
H651	H65	0.792000	0.780500	0.520700
C981	C98	0.700900	0.662200	0.460500
H661	H66	0.676500	0.685700	0.416900
C991	C99	0.670600	0.569600	0.465000
O121	O12	0.220400	0.644900	0.181100
N231	N23	0.888100	0.391900	0.411600
N241	N24	0.771700	0.331500	0.514800
C1001	C100	0.034000	0.490400	0.330900
H671	H67	0.065700	0.488900	0.384800
C1011	C101	0.939400	0.442900	0.330100
C1021	C102	0.810600	0.388500	0.443600
H681	H68	0.787600	0.423300	0.417400
C1031	C103	0.825800	0.292000	0.531100
C1041	C104	0.816100	0.225200	0.595500
H691	H69	0.769000	0.201200	0.640100
C1051	C105	0.878000	0.195400	0.591300
H701	H70	0.872900	0.151100	0.634100
C1061	C106	0.949000	0.231000	0.523300
H711	H71	0.988500	0.208000	0.520700
C1071	C107	0.961300	0.299100	0.460500
H721	H72	0.009200	0.323500	0.416900
C1081	C108	0.899000	0.329400	0.465000
Co11	Co1	0.666670	0.333330	0.603390
Co21	Co2	0.666670	0.333330	0.896610
Co31	Co3	0.333330	0.666670	0.396610
Co41	Co4	0.333330	0.666670	0.103390
C1091	C109	0.817700	0.408850	0.750000
C1101	C110	0.919200	0.459600	0.750000
C1111	C111	0.108300	0.554150	0.750000
H731	H73	0.171600	0.585800	0.750000
C1121	C112	0.591150	0.408850	0.750000
C1131	C113	0.540400	0.459600	0.750000
C1141	C114	0.445850	0.554150	0.750000
H741	H74	0.414200	0.585800	0.750000
C1151	C115	0.591150	0.182300	0.750000
C1161	C116	0.540400	0.080800	0.750000
C1171	C117	0.445850	0.891700	0.750000
H751	H75	0.414200	0.828400	0.750000
C1181	C118	0.182300	0.591150	0.250000
C1191	C119	0.080800	0.540400	0.250000
C1201	C120	0.891700	0.445850	0.250000
H761	H76	0.828400	0.414200	0.250000
C1211	C121	0.408850	0.591150	0.250000
C1221	C122	0.459600	0.540400	0.250000
C1231	C123	0.554150	0.445850	0.250000
H771	H77	0.585800	0.414200	0.250000
C1241	C124	0.408850	0.817700	0.250000
C1251	C125	0.459600	0.919200	0.250000
C1261	C126	0.554150	0.108300	0.250000
H781	H78	0.585800	0.171600	0.250000
