data_YOYREL_clean_PM
_symmetry_space_group_name_H-M	'P1'
_cell_length_a	17.485000
_cell_length_b	17.485000
_cell_length_c	14.019000
_cell_angle_alpha	90.000000
_cell_angle_beta	90.000000
_cell_angle_gamma	120.000000
_symmetry_Int_Tables_number 1

loop_
_symmetry_equiv_pos_as_xyz
'x,y,z'

loop_
_atom_site_label
_atom_site_type_symbol
_atom_site_fract_x
_atom_site_fract_y
_atom_site_fract_z
O11	O1	0.642310	0.422970	0.680970
N11	N1	0.401540	0.506100	0.911600
N21	N2	0.336680	0.559600	0.007250
C11	C1	0.495400	0.458600	0.831000
H11	H1	0.495700	0.428400	0.885500
C21	C2	0.449500	0.503300	0.830000
C31	C3	0.393000	0.575700	0.937800
H21	H2	0.424500	0.630800	0.908800
C41	C4	0.345000	0.436400	0.970200
C51	C5	0.324800	0.349600	0.976400
H31	H3	0.351400	0.327000	0.936800
C61	C6	0.263400	0.298000	0.044100
H41	H4	0.247400	0.238800	0.049600
C71	C7	0.224800	0.332300	0.104500
H51	H5	0.184700	0.295800	0.150400
C81	C8	0.244200	0.418600	0.098200
H61	H6	0.217800	0.441100	0.138300
C91	C9	0.305100	0.470800	0.029300
O21	O2	0.577030	0.219340	0.680970
N31	N3	0.493900	0.895440	0.911600
N41	N4	0.440400	0.777080	0.007250
C101	C10	0.541400	0.036800	0.831000
H71	H7	0.571600	0.067300	0.885500
C111	C11	0.496700	0.946200	0.830000
C121	C12	0.424300	0.817300	0.937800
H81	H8	0.369200	0.793700	0.908800
C131	C13	0.563600	0.908600	0.970200
C141	C14	0.650400	0.975200	0.976400
H91	H9	0.673000	0.024400	0.936800
C151	C15	0.702000	0.965400	0.044100
H101	H10	0.761200	0.008600	0.049600
C161	C16	0.667700	0.892500	0.104500
H111	H11	0.704200	0.888900	0.150400
C171	C17	0.581400	0.825600	0.098200
H121	H12	0.558900	0.776700	0.138300
C181	C18	0.529200	0.834300	0.029300
O31	O3	0.780660	0.357690	0.680970
N51	N5	0.104560	0.598460	0.911600
N61	N6	0.222920	0.663320	0.007250
C191	C19	0.963200	0.504600	0.831000
H131	H13	0.932700	0.504300	0.885500
C201	C20	0.053800	0.550500	0.830000
C211	C21	0.182700	0.607000	0.937800
H141	H14	0.206300	0.575500	0.908800
C221	C22	0.091400	0.655000	0.970200
C231	C23	0.024800	0.675200	0.976400
H151	H15	0.975600	0.648600	0.936800
C241	C24	0.034600	0.736600	0.044100
H161	H16	0.991400	0.752600	0.049600
C251	C25	0.107500	0.775200	0.104500
H171	H17	0.111100	0.815300	0.150400
C261	C26	0.174400	0.755800	0.098200
H181	H18	0.223300	0.782200	0.138300
C271	C27	0.165700	0.694900	0.029300
O41	O4	0.577030	0.357690	0.819030
N71	N7	0.493900	0.598460	0.588400
N81	N8	0.440400	0.663320	0.492750
C281	C28	0.541400	0.504600	0.669000
H191	H19	0.571600	0.504300	0.614500
C291	C29	0.496700	0.550500	0.670000
C301	C30	0.424300	0.607000	0.562200
H201	H20	0.369200	0.575500	0.591200
C311	C31	0.563600	0.655000	0.529800
C321	C32	0.650400	0.675200	0.523600
H211	H21	0.673000	0.648600	0.563200
C331	C33	0.702000	0.736600	0.455900
H221	H22	0.761200	0.752600	0.450400
C341	C34	0.667700	0.775200	0.395500
H231	H23	0.704200	0.815300	0.349600
C351	C35	0.581400	0.755800	0.401800
H241	H24	0.558900	0.782200	0.361700
C361	C36	0.529200	0.694900	0.470700
O51	O5	0.780660	0.422970	0.819030
N91	N9	0.104560	0.506100	0.588400
N101	N10	0.222920	0.559600	0.492750
C371	C37	0.963200	0.458600	0.669000
H251	H25	0.932700	0.428400	0.614500
C381	C38	0.053800	0.503300	0.670000
C391	C39	0.182700	0.575700	0.562200
H261	H26	0.206300	0.630800	0.591200
C401	C40	0.091400	0.436400	0.529800
C411	C41	0.024800	0.349600	0.523600
H271	H27	0.975600	0.327000	0.563200
C421	C42	0.034600	0.298000	0.455900
H281	H28	0.991400	0.238800	0.450400
C431	C43	0.107500	0.332300	0.395500
H291	H29	0.111100	0.295800	0.349600
C441	C44	0.174400	0.418600	0.401800
H301	H30	0.223300	0.441100	0.361700
C451	C45	0.165700	0.470800	0.470700
O61	O6	0.642310	0.219340	0.819030
N111	N11	0.401540	0.895440	0.588400
N121	N12	0.336680	0.777080	0.492750
C461	C46	0.495400	0.036800	0.669000
H311	H31	0.495700	0.067300	0.614500
C471	C47	0.449500	0.946200	0.670000
C481	C48	0.393000	0.817300	0.562200
H321	H32	0.424500	0.793700	0.591200
C491	C49	0.345000	0.908600	0.529800
C501	C50	0.324800	0.975200	0.523600
H331	H33	0.351400	0.024400	0.563200
C511	C51	0.263400	0.965400	0.455900
H341	H34	0.247400	0.008600	0.450400
C521	C52	0.224800	0.892500	0.395500
H351	H35	0.184700	0.888900	0.349600
C531	C53	0.244200	0.825600	0.401800
H361	H36	0.217800	0.776700	0.361700
C541	C54	0.305100	0.834300	0.470700
O71	O7	0.357690	0.577030	0.319030
N131	N13	0.598460	0.493900	0.088400
N141	N14	0.663320	0.440400	0.992750
C551	C55	0.504600	0.541400	0.169000
H371	H37	0.504300	0.571600	0.114500
C561	C56	0.550500	0.496700	0.170000
C571	C57	0.607000	0.424300	0.062200
H381	H38	0.575500	0.369200	0.091200
C581	C58	0.655000	0.563600	0.029800
C591	C59	0.675200	0.650400	0.023600
H391	H39	0.648600	0.673000	0.063200
C601	C60	0.736600	0.702000	0.955900
H401	H40	0.752600	0.761200	0.950400
C611	C61	0.775200	0.667700	0.895500
H411	H41	0.815300	0.704200	0.849600
C621	C62	0.755800	0.581400	0.901800
H421	H42	0.782200	0.558900	0.861700
C631	C63	0.694900	0.529200	0.970700
O81	O8	0.422970	0.780660	0.319030
N151	N15	0.506100	0.104560	0.088400
N161	N16	0.559600	0.222920	0.992750
C641	C64	0.458600	0.963200	0.169000
H431	H43	0.428400	0.932700	0.114500
C651	C65	0.503300	0.053800	0.170000
C661	C66	0.575700	0.182700	0.062200
H441	H44	0.630800	0.206300	0.091200
C671	C67	0.436400	0.091400	0.029800
C681	C68	0.349600	0.024800	0.023600
H451	H45	0.327000	0.975600	0.063200
C691	C69	0.298000	0.034600	0.955900
H461	H46	0.238800	0.991400	0.950400
C701	C70	0.332300	0.107500	0.895500
H471	H47	0.295800	0.111100	0.849600
C711	C71	0.418600	0.174400	0.901800
H481	H48	0.441100	0.223300	0.861700
C721	C72	0.470800	0.165700	0.970700
O91	O9	0.219340	0.642310	0.319030
N171	N17	0.895440	0.401540	0.088400
N181	N18	0.777080	0.336680	0.992750
C731	C73	0.036800	0.495400	0.169000
H491	H49	0.067300	0.495700	0.114500
C741	C74	0.946200	0.449500	0.170000
C751	C75	0.817300	0.393000	0.062200
H501	H50	0.793700	0.424500	0.091200
C761	C76	0.908600	0.345000	0.029800
C771	C77	0.975200	0.324800	0.023600
H511	H51	0.024400	0.351400	0.063200
C781	C78	0.965400	0.263400	0.955900
H521	H52	0.008600	0.247400	0.950400
C791	C79	0.892500	0.224800	0.895500
H531	H53	0.888900	0.184700	0.849600
C801	C80	0.825600	0.244200	0.901800
H541	H54	0.776700	0.217800	0.861700
C811	C81	0.834300	0.305100	0.970700
O101	O10	0.422970	0.642310	0.180970
N191	N19	0.506100	0.401540	0.411600
N201	N20	0.559600	0.336680	0.507250
C821	C82	0.458600	0.495400	0.331000
H551	H55	0.428400	0.495700	0.385500
C831	C83	0.503300	0.449500	0.330000
C841	C84	0.575700	0.393000	0.437800
H561	H56	0.630800	0.424500	0.408800
C851	C85	0.436400	0.345000	0.470200
C861	C86	0.349600	0.324800	0.476400
H571	H57	0.327000	0.351400	0.436800
C871	C87	0.298000	0.263400	0.544100
H581	H58	0.238800	0.247400	0.549600
C881	C88	0.332300	0.224800	0.604500
H591	H59	0.295800	0.184700	0.650400
C891	C89	0.418600	0.244200	0.598200
H601	H60	0.441100	0.217800	0.638300
C901	C90	0.470800	0.305100	0.529300
O111	O11	0.219340	0.577030	0.180970
N211	N21	0.895440	0.493900	0.411600
N221	N22	0.777080	0.440400	0.507250
C911	C91	0.036800	0.541400	0.331000
H611	H61	0.067300	0.571600	0.385500
C921	C92	0.946200	0.496700	0.330000
C931	C93	0.817300	0.424300	0.437800
H621	H62	0.793700	0.369200	0.408800
C941	C94	0.908600	0.563600	0.470200
C951	C95	0.975200	0.650400	0.476400
H631	H63	0.024400	0.673000	0.436800
C961	C96	0.965400	0.702000	0.544100
H641	H64	0.008600	0.761200	0.549600
C971	C97	0.892500	0.667700	0.604500
H651	H65	0.888900	0.704200	0.650400
C981	C98	0.825600	0.581400	0.598200
H661	H66	0.776700	0.558900	0.638300
C991	C99	0.834300	0.529200	0.529300
O121	O12	0.357690	0.780660	0.180970
N231	N23	0.598460	0.104560	0.411600
N241	N24	0.663320	0.222920	0.507250
C1001	C100	0.504600	0.963200	0.331000
H671	H67	0.504300	0.932700	0.385500
C1011	C101	0.550500	0.053800	0.330000
C1021	C102	0.607000	0.182700	0.437800
H681	H68	0.575500	0.206300	0.408800
C1031	C103	0.655000	0.091400	0.470200
C1041	C104	0.675200	0.024800	0.476400
H691	H69	0.648600	0.975600	0.436800
C1051	C105	0.736600	0.034600	0.544100
H701	H70	0.752600	0.991400	0.549600
C1061	C106	0.775200	0.107500	0.604500
H711	H71	0.815300	0.111100	0.650400
C1071	C107	0.755800	0.174400	0.598200
H721	H72	0.782200	0.223300	0.638300
C1081	C108	0.694900	0.165700	0.529300
Mn11	Mn1	0.666670	0.333330	0.601470
Mn21	Mn2	0.666670	0.333330	0.898530
Mn31	Mn3	0.333330	0.666670	0.398530
Mn41	Mn4	0.333330	0.666670	0.101470
C1091	C109	0.590970	0.409030	0.750000
C1101	C110	0.541430	0.458570	0.750000
C1111	C111	0.450260	0.549740	0.750000
H731	H73	0.419600	0.580400	0.750000
C1121	C112	0.590970	0.181940	0.750000
C1131	C113	0.541430	0.082860	0.750000
C1141	C114	0.450260	0.900520	0.750000
H741	H74	0.419600	0.839200	0.750000
C1151	C115	0.818060	0.409030	0.750000
C1161	C116	0.917140	0.458570	0.750000
C1171	C117	0.099480	0.549740	0.750000
H751	H75	0.160800	0.580400	0.750000
C1181	C118	0.409030	0.590970	0.250000
C1191	C119	0.458570	0.541430	0.250000
C1201	C120	0.549740	0.450260	0.250000
H761	H76	0.580400	0.419600	0.250000
C1211	C121	0.409030	0.818060	0.250000
C1221	C122	0.458570	0.917140	0.250000
C1231	C123	0.549740	0.099480	0.250000
H771	H77	0.580400	0.160800	0.250000
C1241	C124	0.181940	0.590970	0.250000
C1251	C125	0.082860	0.541430	0.250000
C1261	C126	0.900520	0.450260	0.250000
H781	H78	0.839200	0.419600	0.250000
