data_YOYVOZ01_clean_PM
_symmetry_space_group_name_H-M	'P1'
_cell_length_a	26.807800
_cell_length_b	26.807800
_cell_length_c	9.940600
_cell_angle_alpha	90.000000
_cell_angle_beta	90.000000
_cell_angle_gamma	120.000000
_symmetry_Int_Tables_number 1

loop_
_symmetry_equiv_pos_as_xyz
'x,y,z'

loop_
_atom_site_label
_atom_site_type_symbol
_atom_site_fract_x
_atom_site_fract_y
_atom_site_fract_z
N11	N1	0.892100	0.225100	0.818700
C11	C1	0.729000	0.186700	0.675400
H11	H1	0.708900	0.146600	0.676100
C21	C2	0.697800	0.213900	0.676900
H21	H2	0.657800	0.192900	0.680300
C31	C3	0.929700	0.252300	0.884100
N21	N2	0.558770	0.558430	0.152030
C41	C4	0.395670	0.520030	0.008730
H31	H3	0.375570	0.479930	0.009430
C51	C5	0.364470	0.547230	0.010230
H41	H4	0.324470	0.526230	0.013630
C61	C6	0.596370	0.585630	0.217430
N31	N3	0.225430	0.891770	0.485370
C71	C7	0.062330	0.853370	0.342070
H51	H5	0.042230	0.813270	0.342770
C81	C8	0.031130	0.880570	0.343570
H61	H6	0.991130	0.859570	0.346970
C91	C9	0.263030	0.918970	0.550770
N41	N4	0.774900	0.667000	0.818700
C101	C10	0.813300	0.542300	0.675400
H71	H7	0.853400	0.562300	0.676100
C111	C11	0.786100	0.483900	0.676900
H81	H8	0.807100	0.464900	0.680300
C121	C12	0.747700	0.677400	0.884100
N51	N5	0.441570	0.000330	0.152030
C131	C13	0.479970	0.875630	0.008730
H91	H9	0.520070	0.895630	0.009430
C141	C14	0.452770	0.817230	0.010230
H101	H10	0.473770	0.798230	0.013630
C151	C15	0.414370	0.010730	0.217430
N61	N6	0.108230	0.333670	0.485370
C161	C16	0.146630	0.208970	0.342070
H111	H11	0.186730	0.228970	0.342770
C171	C17	0.119430	0.150570	0.343570
H121	H12	0.140430	0.131570	0.346970
C181	C18	0.081030	0.344070	0.550770
N71	N7	0.333000	0.107900	0.818700
C191	C19	0.457700	0.271000	0.675400
H131	H13	0.437700	0.291100	0.676100
C201	C20	0.516100	0.302200	0.676900
H141	H14	0.535100	0.342200	0.680300
C211	C21	0.322600	0.070300	0.884100
N81	N8	0.999670	0.441230	0.152030
C221	C22	0.124370	0.604330	0.008730
H151	H15	0.104370	0.624430	0.009430
C231	C23	0.182770	0.635530	0.010230
H161	H16	0.201770	0.675530	0.013630
C241	C24	0.989270	0.403630	0.217430
N91	N9	0.666330	0.774570	0.485370
C251	C25	0.791030	0.937670	0.342070
H171	H17	0.771030	0.957770	0.342770
C261	C26	0.849430	0.968870	0.343570
H181	H18	0.868430	0.008870	0.346970
C271	C27	0.655930	0.736970	0.550770
N101	N10	0.225100	0.892100	0.181300
C281	C28	0.186700	0.729000	0.324600
H191	H19	0.146600	0.708900	0.323900
C291	C29	0.213900	0.697800	0.323100
H201	H20	0.192900	0.657800	0.319700
C301	C30	0.252300	0.929700	0.115900
N111	N11	0.891770	0.225430	0.514630
C311	C31	0.853370	0.062330	0.657930
H211	H21	0.813270	0.042230	0.657230
C321	C32	0.880570	0.031130	0.656430
H221	H22	0.859570	0.991130	0.653030
C331	C33	0.918970	0.263030	0.449230
N121	N12	0.558430	0.558770	0.847970
C341	C34	0.520030	0.395670	0.991270
H231	H23	0.479930	0.375570	0.990570
C351	C35	0.547230	0.364470	0.989770
H241	H24	0.526230	0.324470	0.986370
C361	C36	0.585630	0.596370	0.782570
N131	N13	0.667000	0.774900	0.181300
C371	C37	0.542300	0.813300	0.324600
H251	H25	0.562300	0.853400	0.323900
C381	C38	0.483900	0.786100	0.323100
H261	H26	0.464900	0.807100	0.319700
C391	C39	0.677400	0.747700	0.115900
N141	N14	0.333670	0.108230	0.514630
C401	C40	0.208970	0.146630	0.657930
H271	H27	0.228970	0.186730	0.657230
C411	C41	0.150570	0.119430	0.656430
H281	H28	0.131570	0.140430	0.653030
C421	C42	0.344070	0.081030	0.449230
N151	N15	0.000330	0.441570	0.847970
C431	C43	0.875630	0.479970	0.991270
H291	H29	0.895630	0.520070	0.990570
C441	C44	0.817230	0.452770	0.989770
H301	H30	0.798230	0.473770	0.986370
C451	C45	0.010730	0.414370	0.782570
N161	N16	0.107900	0.333000	0.181300
C461	C46	0.271000	0.457700	0.324600
H311	H31	0.291100	0.437700	0.323900
C471	C47	0.302200	0.516100	0.323100
H321	H32	0.342200	0.535100	0.319700
C481	C48	0.070300	0.322600	0.115900
N171	N17	0.774570	0.666330	0.514630
C491	C49	0.937670	0.791030	0.657930
H331	H33	0.957770	0.771030	0.657230
C501	C50	0.968870	0.849430	0.656430
H341	H34	0.008870	0.868430	0.653030
C511	C51	0.736970	0.655930	0.449230
N181	N18	0.441230	0.999670	0.847970
C521	C52	0.604330	0.124370	0.991270
H351	H35	0.624430	0.104370	0.990570
C531	C53	0.635530	0.182770	0.989770
H361	H36	0.675530	0.201770	0.986370
C541	C54	0.403630	0.989270	0.782570
N191	N19	0.107900	0.774900	0.181300
C551	C55	0.271000	0.813300	0.324600
H371	H37	0.291100	0.853400	0.323900
C561	C56	0.302200	0.786100	0.323100
H381	H38	0.342200	0.807100	0.319700
C571	C57	0.070300	0.747700	0.115900
N201	N20	0.774570	0.108230	0.514630
C581	C58	0.937670	0.146630	0.657930
H391	H39	0.957770	0.186730	0.657230
C591	C59	0.968870	0.119430	0.656430
H401	H40	0.008870	0.140430	0.653030
C601	C60	0.736970	0.081030	0.449230
N211	N21	0.441230	0.441570	0.847970
C611	C61	0.604330	0.479970	0.991270
H411	H41	0.624430	0.520070	0.990570
C621	C62	0.635530	0.452770	0.989770
H421	H42	0.675530	0.473770	0.986370
C631	C63	0.403630	0.414370	0.782570
N221	N22	0.225100	0.333000	0.181300
C641	C64	0.186700	0.457700	0.324600
H431	H43	0.146600	0.437700	0.323900
C651	C65	0.213900	0.516100	0.323100
H441	H44	0.192900	0.535100	0.319700
C661	C66	0.252300	0.322600	0.115900
N231	N23	0.891770	0.666330	0.514630
C671	C67	0.853370	0.791030	0.657930
H451	H45	0.813270	0.771030	0.657230
C681	C68	0.880570	0.849430	0.656430
H461	H46	0.859570	0.868430	0.653030
C691	C69	0.918970	0.655930	0.449230
N241	N24	0.558430	0.999670	0.847970
C701	C70	0.520030	0.124370	0.991270
H471	H47	0.479930	0.104370	0.990570
C711	C71	0.547230	0.182770	0.989770
H481	H48	0.526230	0.201770	0.986370
C721	C72	0.585630	0.989270	0.782570
N251	N25	0.667000	0.892100	0.181300
C731	C73	0.542300	0.729000	0.324600
H491	H49	0.562300	0.708900	0.323900
C741	C74	0.483900	0.697800	0.323100
H501	H50	0.464900	0.657800	0.319700
C751	C75	0.677400	0.929700	0.115900
N261	N26	0.333670	0.225430	0.514630
C761	C76	0.208970	0.062330	0.657930
H511	H51	0.228970	0.042230	0.657230
C771	C77	0.150570	0.031130	0.656430
H521	H52	0.131570	0.991130	0.653030
C781	C78	0.344070	0.263030	0.449230
N271	N27	0.000330	0.558770	0.847970
C791	C79	0.875630	0.395670	0.991270
H531	H53	0.895630	0.375570	0.990570
C801	C80	0.817230	0.364470	0.989770
H541	H54	0.798230	0.324470	0.986370
C811	C81	0.010730	0.596370	0.782570
N281	N28	0.774900	0.107900	0.818700
C821	C82	0.813300	0.271000	0.675400
H551	H55	0.853400	0.291100	0.676100
C831	C83	0.786100	0.302200	0.676900
H561	H56	0.807100	0.342200	0.680300
C841	C84	0.747700	0.070300	0.884100
N291	N29	0.441570	0.441230	0.152030
C851	C85	0.479970	0.604330	0.008730
H571	H57	0.520070	0.624430	0.009430
C861	C86	0.452770	0.635530	0.010230
H581	H58	0.473770	0.675530	0.013630
C871	C87	0.414370	0.403630	0.217430
N301	N30	0.108230	0.774570	0.485370
C881	C88	0.146630	0.937670	0.342070
H591	H59	0.186730	0.957770	0.342770
C891	C89	0.119430	0.968870	0.343570
H601	H60	0.140430	0.008870	0.346970
C901	C90	0.081030	0.736970	0.550770
N311	N31	0.333000	0.225100	0.818700
C911	C91	0.457700	0.186700	0.675400
H611	H61	0.437700	0.146600	0.676100
C921	C92	0.516100	0.213900	0.676900
H621	H62	0.535100	0.192900	0.680300
C931	C93	0.322600	0.252300	0.884100
N321	N32	0.999670	0.558430	0.152030
C941	C94	0.124370	0.520030	0.008730
H631	H63	0.104370	0.479930	0.009430
C951	C95	0.182770	0.547230	0.010230
H641	H64	0.201770	0.526230	0.013630
C961	C96	0.989270	0.585630	0.217430
N331	N33	0.666330	0.891770	0.485370
C971	C97	0.791030	0.853370	0.342070
H651	H65	0.771030	0.813270	0.342770
C981	C98	0.849430	0.880570	0.343570
H661	H66	0.868430	0.859570	0.346970
C991	C99	0.655930	0.918970	0.550770
N341	N34	0.892100	0.667000	0.818700
C1001	C100	0.729000	0.542300	0.675400
H671	H67	0.708900	0.562300	0.676100
C1011	C101	0.697800	0.483900	0.676900
H681	H68	0.657800	0.464900	0.680300
C1021	C102	0.929700	0.677400	0.884100
N351	N35	0.558770	0.000330	0.152030
C1031	C103	0.395670	0.875630	0.008730
H691	H69	0.375570	0.895630	0.009430
C1041	C104	0.364470	0.817230	0.010230
H701	H70	0.324470	0.798230	0.013630
C1051	C105	0.596370	0.010730	0.217430
N361	N36	0.225430	0.333670	0.485370
C1061	C106	0.062330	0.208970	0.342070
H711	H71	0.042230	0.228970	0.342770
C1071	C107	0.031130	0.150570	0.343570
H721	H72	0.991130	0.131570	0.346970
C1081	C108	0.263030	0.344070	0.550770
N371	N37	0.636350	0.272700	0.670000
N381	N38	0.303020	0.606030	0.003330
N391	N39	0.969680	0.939370	0.336670
N401	N40	0.727300	0.363650	0.670000
N411	N41	0.393970	0.696980	0.003330
N421	N42	0.060630	0.030320	0.336670
N431	N43	0.636350	0.363650	0.670000
N441	N44	0.303020	0.696980	0.003330
N451	N45	0.969680	0.030320	0.336670
N461	N46	0.272700	0.636350	0.330000
N471	N47	0.939370	0.969680	0.663330
N481	N48	0.606030	0.303020	0.996670
N491	N49	0.363650	0.727300	0.330000
N501	N50	0.030320	0.060630	0.663330
N511	N51	0.696980	0.393970	0.996670
N521	N52	0.363650	0.636350	0.330000
N531	N53	0.030320	0.969680	0.663330
N541	N54	0.696980	0.303020	0.996670
Au11	Au1	0.000000	0.291730	0.000000
Au21	Au2	0.666670	0.625060	0.333330
Au31	Au3	0.333330	0.958400	0.666670
Au41	Au4	0.708270	0.708270	0.000000
Au51	Au5	0.374940	0.041600	0.333330
Au61	Au6	0.041600	0.374940	0.666670
Au71	Au7	0.291730	0.000000	0.000000
Au81	Au8	0.958400	0.333330	0.333330
Au91	Au9	0.625060	0.666670	0.666670
Au101	Au10	0.000000	0.708270	0.000000
Au111	Au11	0.666670	0.041600	0.333330
Au121	Au12	0.333330	0.374940	0.666670
Au131	Au13	0.291730	0.291730	0.000000
Au141	Au14	0.958400	0.625060	0.333330
Au151	Au15	0.625060	0.958400	0.666670
Au161	Au16	0.708270	0.000000	0.000000
Au171	Au17	0.374940	0.333330	0.333330
Au181	Au18	0.041600	0.666670	0.666670
Fe11	Fe1	0.833330	0.166670	0.666670
Fe21	Fe2	0.500000	0.500000	0.000000
Fe31	Fe3	0.833330	0.666670	0.666670
Fe41	Fe4	0.500000	0.000000	0.000000
Fe51	Fe5	0.333330	0.166670	0.666670
Fe61	Fe6	0.000000	0.500000	0.000000
Fe71	Fe7	0.166670	0.833330	0.333330
Fe81	Fe8	0.666670	0.833330	0.333330
Fe91	Fe9	0.166670	0.333330	0.333330
N551	N55	0.786600	0.213400	0.672900
C1091	C109	0.726700	0.273300	0.673400
C1101	C110	0.695000	0.305000	0.674000
N561	N56	0.453270	0.546730	0.006230
C1111	C111	0.393370	0.606630	0.006730
C1121	C112	0.361670	0.638330	0.007330
N571	N57	0.119930	0.880070	0.339570
C1131	C113	0.060030	0.939970	0.340070
C1141	C114	0.028330	0.971670	0.340670
N581	N58	0.786600	0.573200	0.672900
C1151	C115	0.726700	0.453400	0.673400
C1161	C116	0.695000	0.390000	0.674000
N591	N59	0.453270	0.906530	0.006230
C1171	C117	0.393370	0.786730	0.006730
C1181	C118	0.361670	0.723330	0.007330
N601	N60	0.119930	0.239870	0.339570
C1191	C119	0.060030	0.120070	0.340070
C1201	C120	0.028330	0.056670	0.340670
N611	N61	0.426800	0.213400	0.672900
C1211	C121	0.546600	0.273300	0.673400
C1221	C122	0.610000	0.305000	0.674000
N621	N62	0.093470	0.546730	0.006230
C1231	C123	0.213270	0.606630	0.006730
C1241	C124	0.276670	0.638330	0.007330
N631	N63	0.760130	0.880070	0.339570
C1251	C125	0.879930	0.939970	0.340070
C1261	C126	0.943330	0.971670	0.340670
N641	N64	0.213400	0.786600	0.327100
C1271	C127	0.273300	0.726700	0.326600
C1281	C128	0.305000	0.695000	0.326000
N651	N65	0.880070	0.119930	0.660430
C1291	C129	0.939970	0.060030	0.659930
C1301	C130	0.971670	0.028330	0.659330
N661	N66	0.546730	0.453270	0.993770
C1311	C131	0.606630	0.393370	0.993270
C1321	C132	0.638330	0.361670	0.992670
N671	N67	0.573200	0.786600	0.327100
C1331	C133	0.453400	0.726700	0.326600
C1341	C134	0.390000	0.695000	0.326000
N681	N68	0.239870	0.119930	0.660430
C1351	C135	0.120070	0.060030	0.659930
C1361	C136	0.056670	0.028330	0.659330
N691	N69	0.906530	0.453270	0.993770
C1371	C137	0.786730	0.393370	0.993270
C1381	C138	0.723330	0.361670	0.992670
N701	N70	0.213400	0.426800	0.327100
C1391	C139	0.273300	0.546600	0.326600
C1401	C140	0.305000	0.610000	0.326000
N711	N71	0.880070	0.760130	0.660430
C1411	C141	0.939970	0.879930	0.659930
C1421	C142	0.971670	0.943330	0.659330
N721	N72	0.546730	0.093470	0.993770
C1431	C143	0.606630	0.213270	0.993270
C1441	C144	0.638330	0.276670	0.992670
