data_YOYVEP01_clean_PM
_symmetry_space_group_name_H-M	'P1'
_cell_length_a	26.901000
_cell_length_b	26.901000
_cell_length_c	9.774200
_cell_angle_alpha	90.000000
_cell_angle_beta	90.000000
_cell_angle_gamma	120.000000
_symmetry_Int_Tables_number 1

loop_
_symmetry_equiv_pos_as_xyz
'x,y,z'

loop_
_atom_site_label
_atom_site_type_symbol
_atom_site_fract_x
_atom_site_fract_y
_atom_site_fract_z
N11	N1	0.558000	0.999200	0.152100
C11	C1	0.604400	0.124000	0.999800
H11	H1	0.624200	0.103900	0.999700
C21	C2	0.635600	0.183500	0.999700
H21	H2	0.675500	0.202700	0.999700
C31	C3	0.597100	0.010300	0.217800
N21	N2	0.224670	0.332530	0.485430
C41	C4	0.271070	0.457330	0.333130
H31	H3	0.290870	0.437230	0.333030
C51	C5	0.302270	0.516830	0.333030
H41	H4	0.342170	0.536030	0.333030
C61	C6	0.263770	0.343630	0.551130
N31	N3	0.891330	0.665870	0.818770
C71	C7	0.937730	0.790670	0.666470
H51	H5	0.957530	0.770570	0.666370
C81	C8	0.968930	0.850170	0.666370
H61	H6	0.008830	0.869370	0.666370
C91	C9	0.930430	0.676970	0.884470
N41	N4	0.000800	0.558800	0.152100
C101	C10	0.876000	0.480400	0.999800
H71	H7	0.896100	0.520300	0.999700
C111	C11	0.816500	0.452100	0.999700
H81	H8	0.797300	0.472800	0.999700
C121	C12	0.989700	0.586800	0.217800
N51	N5	0.667470	0.892130	0.485430
C131	C13	0.542670	0.813730	0.333130
H91	H9	0.562770	0.853630	0.333030
C141	C14	0.483170	0.785430	0.333030
H101	H10	0.463970	0.806130	0.333030
C151	C15	0.656370	0.920130	0.551130
N61	N6	0.334130	0.225470	0.818770
C161	C16	0.209330	0.147070	0.666470
H111	H11	0.229430	0.186970	0.666370
C171	C17	0.149830	0.118770	0.666370
H121	H12	0.130630	0.139470	0.666370
C181	C18	0.323030	0.253470	0.884470
N71	N7	0.441200	0.442000	0.152100
C191	C19	0.519600	0.395600	0.999800
H131	H13	0.479700	0.375800	0.999700
C201	C20	0.547900	0.364400	0.999700
H141	H14	0.527200	0.324500	0.999700
C211	C21	0.413200	0.402900	0.217800
N81	N8	0.107870	0.775330	0.485430
C221	C22	0.186270	0.728930	0.333130
H151	H15	0.146370	0.709130	0.333030
C231	C23	0.214570	0.697730	0.333030
H161	H16	0.193870	0.657830	0.333030
C241	C24	0.079870	0.736230	0.551130
N91	N9	0.774530	0.108670	0.818770
C251	C25	0.852930	0.062270	0.666470
H171	H17	0.813030	0.042470	0.666370
C261	C26	0.881230	0.031070	0.666370
H181	H18	0.860530	0.991170	0.666370
C271	C27	0.746530	0.069570	0.884470
N101	N10	0.999200	0.558000	0.847900
C281	C28	0.124000	0.604400	0.000200
H191	H19	0.103900	0.624200	0.000300
C291	C29	0.183500	0.635600	0.000300
H201	H20	0.202700	0.675500	0.000300
C301	C30	0.010300	0.597100	0.782200
N111	N11	0.665870	0.891330	0.181230
C311	C31	0.790670	0.937730	0.333530
H211	H21	0.770570	0.957530	0.333630
C321	C32	0.850170	0.968930	0.333630
H221	H22	0.869370	0.008830	0.333630
C331	C33	0.676970	0.930430	0.115530
N121	N12	0.332530	0.224670	0.514570
C341	C34	0.457330	0.271070	0.666870
H231	H23	0.437230	0.290870	0.666970
C351	C35	0.516830	0.302270	0.666970
H241	H24	0.536030	0.342170	0.666970
C361	C36	0.343630	0.263770	0.448870
N131	N13	0.558800	0.000800	0.847900
C371	C37	0.480400	0.876000	0.000200
H251	H25	0.520300	0.896100	0.000300
C381	C38	0.452100	0.816500	0.000300
H261	H26	0.472800	0.797300	0.000300
C391	C39	0.586800	0.989700	0.782200
N141	N14	0.225470	0.334130	0.181230
C401	C40	0.147070	0.209330	0.333530
H271	H27	0.186970	0.229430	0.333630
C411	C41	0.118770	0.149830	0.333630
H281	H28	0.139470	0.130630	0.333630
C421	C42	0.253470	0.323030	0.115530
N151	N15	0.892130	0.667470	0.514570
C431	C43	0.813730	0.542670	0.666870
H291	H29	0.853630	0.562770	0.666970
C441	C44	0.785430	0.483170	0.666970
H301	H30	0.806130	0.463970	0.666970
C451	C45	0.920130	0.656370	0.448870
N161	N16	0.442000	0.441200	0.847900
C461	C46	0.395600	0.519600	0.000200
H311	H31	0.375800	0.479700	0.000300
C471	C47	0.364400	0.547900	0.000300
H321	H32	0.324500	0.527200	0.000300
C481	C48	0.402900	0.413200	0.782200
N171	N17	0.108670	0.774530	0.181230
C491	C49	0.062270	0.852930	0.333530
H331	H33	0.042470	0.813030	0.333630
C501	C50	0.031070	0.881230	0.333630
H341	H34	0.991170	0.860530	0.333630
C511	C51	0.069570	0.746530	0.115530
N181	N18	0.775330	0.107870	0.514570
C521	C52	0.728930	0.186270	0.666870
H351	H35	0.709130	0.146370	0.666970
C531	C53	0.697730	0.214570	0.666970
H361	H36	0.657830	0.193870	0.666970
C541	C54	0.736230	0.079870	0.448870
N191	N19	0.442000	0.000800	0.847900
C551	C55	0.395600	0.876000	0.000200
H371	H37	0.375800	0.896100	0.000300
C561	C56	0.364400	0.816500	0.000300
H381	H38	0.324500	0.797300	0.000300
C571	C57	0.402900	0.989700	0.782200
N201	N20	0.108670	0.334130	0.181230
C581	C58	0.062270	0.209330	0.333530
H391	H39	0.042470	0.229430	0.333630
C591	C59	0.031070	0.149830	0.333630
H401	H40	0.991170	0.130630	0.333630
C601	C60	0.069570	0.323030	0.115530
N211	N21	0.775330	0.667470	0.514570
C611	C61	0.728930	0.542670	0.666870
H411	H41	0.709130	0.562770	0.666970
C621	C62	0.697730	0.483170	0.666970
H421	H42	0.657830	0.463970	0.666970
C631	C63	0.736230	0.656370	0.448870
N221	N22	0.999200	0.441200	0.847900
C641	C64	0.124000	0.519600	0.000200
H431	H43	0.103900	0.479700	0.000300
C651	C65	0.183500	0.547900	0.000300
H441	H44	0.202700	0.527200	0.000300
C661	C66	0.010300	0.413200	0.782200
N231	N23	0.665870	0.774530	0.181230
C671	C67	0.790670	0.852930	0.333530
H451	H45	0.770570	0.813030	0.333630
C681	C68	0.850170	0.881230	0.333630
H461	H46	0.869370	0.860530	0.333630
C691	C69	0.676970	0.746530	0.115530
N241	N24	0.332530	0.107870	0.514570
C701	C70	0.457330	0.186270	0.666870
H471	H47	0.437230	0.146370	0.666970
C711	C71	0.516830	0.214570	0.666970
H481	H48	0.536030	0.193870	0.666970
C721	C72	0.343630	0.079870	0.448870
N251	N25	0.558800	0.558000	0.847900
C731	C73	0.480400	0.604400	0.000200
H491	H49	0.520300	0.624200	0.000300
C741	C74	0.452100	0.635600	0.000300
H501	H50	0.472800	0.675500	0.000300
C751	C75	0.586800	0.597100	0.782200
N261	N26	0.225470	0.891330	0.181230
C761	C76	0.147070	0.937730	0.333530
H511	H51	0.186970	0.957530	0.333630
C771	C77	0.118770	0.968930	0.333630
H521	H52	0.139470	0.008830	0.333630
C781	C78	0.253470	0.930430	0.115530
N271	N27	0.892130	0.224670	0.514570
C791	C79	0.813730	0.271070	0.666870
H531	H53	0.853630	0.290870	0.666970
C801	C80	0.785430	0.302270	0.666970
H541	H54	0.806130	0.342170	0.666970
C811	C81	0.920130	0.263770	0.448870
N281	N28	0.000800	0.442000	0.152100
C821	C82	0.876000	0.395600	0.999800
H551	H55	0.896100	0.375800	0.999700
C831	C83	0.816500	0.364400	0.999700
H561	H56	0.797300	0.324500	0.999700
C841	C84	0.989700	0.402900	0.217800
N291	N29	0.667470	0.775330	0.485430
C851	C85	0.542670	0.728930	0.333130
H571	H57	0.562770	0.709130	0.333030
C861	C86	0.483170	0.697730	0.333030
H581	H58	0.463970	0.657830	0.333030
C871	C87	0.656370	0.736230	0.551130
N301	N30	0.334130	0.108670	0.818770
C881	C88	0.209330	0.062270	0.666470
H591	H59	0.229430	0.042470	0.666370
C891	C89	0.149830	0.031070	0.666370
H601	H60	0.130630	0.991170	0.666370
C901	C90	0.323030	0.069570	0.884470
N311	N31	0.441200	0.999200	0.152100
C911	C91	0.519600	0.124000	0.999800
H611	H61	0.479700	0.103900	0.999700
C921	C92	0.547900	0.183500	0.999700
H621	H62	0.527200	0.202700	0.999700
C931	C93	0.413200	0.010300	0.217800
N321	N32	0.107870	0.332530	0.485430
C941	C94	0.186270	0.457330	0.333130
H631	H63	0.146370	0.437230	0.333030
C951	C95	0.214570	0.516830	0.333030
H641	H64	0.193870	0.536030	0.333030
C961	C96	0.079870	0.343630	0.551130
N331	N33	0.774530	0.665870	0.818770
C971	C97	0.852930	0.790670	0.666470
H651	H65	0.813030	0.770570	0.666370
C981	C98	0.881230	0.850170	0.666370
H661	H66	0.860530	0.869370	0.666370
C991	C99	0.746530	0.676970	0.884470
N341	N34	0.558000	0.558800	0.152100
C1001	C100	0.604400	0.480400	0.999800
H671	H67	0.624200	0.520300	0.999700
C1011	C101	0.635600	0.452100	0.999700
H681	H68	0.675500	0.472800	0.999700
C1021	C102	0.597100	0.586800	0.217800
N351	N35	0.224670	0.892130	0.485430
C1031	C103	0.271070	0.813730	0.333130
H691	H69	0.290870	0.853630	0.333030
C1041	C104	0.302270	0.785430	0.333030
H701	H70	0.342170	0.806130	0.333030
C1051	C105	0.263770	0.920130	0.551130
N361	N36	0.891330	0.225470	0.818770
C1061	C106	0.937730	0.147070	0.666470
H711	H71	0.957530	0.186970	0.666370
C1071	C107	0.968930	0.118770	0.666370
H721	H72	0.008830	0.139470	0.666370
C1081	C108	0.930430	0.253470	0.884470
Au11	Au1	0.666670	0.039910	0.333330
Au21	Au2	0.960090	0.626750	0.333330
Au31	Au3	0.373250	0.333330	0.333330
Au41	Au4	0.039910	0.666670	0.666670
Au51	Au5	0.706580	0.000000	0.000000
Au61	Au6	0.626750	0.960090	0.666670
Au71	Au7	0.293420	0.293420	0.000000
Au81	Au8	0.333330	0.373250	0.666670
Au91	Au9	0.000000	0.706580	0.000000
Au101	Au10	0.333330	0.960090	0.666670
Au111	Au11	0.000000	0.293420	0.000000
Au121	Au12	0.039910	0.373250	0.666670
Au131	Au13	0.706580	0.706580	0.000000
Au141	Au14	0.626750	0.666670	0.666670
Au151	Au15	0.293420	0.000000	0.000000
Au161	Au16	0.960090	0.333330	0.333330
Au171	Au17	0.373250	0.039910	0.333330
Au181	Au18	0.666670	0.626750	0.333330
Fe11	Fe1	0.500000	0.000000	0.000000
Fe21	Fe2	0.166670	0.333330	0.333330
Fe31	Fe3	0.833330	0.666670	0.666670
Fe41	Fe4	0.000000	0.500000	0.000000
Fe51	Fe5	0.666670	0.833330	0.333330
Fe61	Fe6	0.333330	0.166670	0.666670
Fe71	Fe7	0.500000	0.500000	0.000000
Fe81	Fe8	0.166670	0.833330	0.333330
Fe91	Fe9	0.833330	0.166670	0.666670
N371	N37	0.547150	0.094300	0.000200
C1091	C109	0.606800	0.213600	0.999500
C1101	C110	0.638600	0.277200	0.998500
N381	N38	0.213820	0.427630	0.333530
C1111	C111	0.273470	0.546930	0.332830
C1121	C112	0.305270	0.610530	0.331830
N391	N39	0.880480	0.760970	0.666870
C1131	C113	0.940130	0.880270	0.666170
C1141	C114	0.971930	0.943870	0.665170
N401	N40	0.905700	0.452850	0.000200
C1151	C115	0.786400	0.393200	0.999500
C1161	C116	0.722800	0.361400	0.998500
N411	N41	0.572370	0.786180	0.333530
C1171	C117	0.453070	0.726530	0.332830
C1181	C118	0.389470	0.694730	0.331830
N421	N42	0.239030	0.119520	0.666870
C1191	C119	0.119730	0.059870	0.666170
C1201	C120	0.056130	0.028070	0.665170
N431	N43	0.547150	0.452850	0.000200
C1211	C121	0.606800	0.393200	0.999500
C1221	C122	0.638600	0.361400	0.998500
N441	N44	0.213820	0.786180	0.333530
C1231	C123	0.273470	0.726530	0.332830
C1241	C124	0.305270	0.694730	0.331830
N451	N45	0.880480	0.119520	0.666870
C1251	C125	0.940130	0.059870	0.666170
C1261	C126	0.971930	0.028070	0.665170
N461	N46	0.094300	0.547150	0.999800
C1271	C127	0.213600	0.606800	0.000500
C1281	C128	0.277200	0.638600	0.001500
N471	N47	0.760970	0.880480	0.333130
C1291	C129	0.880270	0.940130	0.333830
C1301	C130	0.943870	0.971930	0.334830
N481	N48	0.427630	0.213820	0.666470
C1311	C131	0.546930	0.273470	0.667170
C1321	C132	0.610530	0.305270	0.668170
N491	N49	0.452850	0.905700	0.999800
C1331	C133	0.393200	0.786400	0.000500
C1341	C134	0.361400	0.722800	0.001500
N501	N50	0.119520	0.239030	0.333130
C1351	C135	0.059870	0.119730	0.333830
C1361	C136	0.028070	0.056130	0.334830
N511	N51	0.786180	0.572370	0.666470
C1371	C137	0.726530	0.453070	0.667170
C1381	C138	0.694730	0.389470	0.668170
N521	N52	0.452850	0.547150	0.999800
C1391	C139	0.393200	0.606800	0.000500
C1401	C140	0.361400	0.638600	0.001500
N531	N53	0.119520	0.880480	0.333130
C1411	C141	0.059870	0.940130	0.333830
C1421	C142	0.028070	0.971930	0.334830
N541	N54	0.786180	0.213820	0.666470
C1431	C143	0.726530	0.273470	0.667170
C1441	C144	0.694730	0.305270	0.668170
N551	N55	0.696090	0.303910	0.999600
N561	N56	0.362760	0.637240	0.332930
N571	N57	0.029420	0.970580	0.666270
N581	N58	0.696090	0.392180	0.999600
N591	N59	0.362760	0.725510	0.332930
N601	N60	0.029420	0.058850	0.666270
N611	N61	0.607820	0.303910	0.999600
N621	N62	0.274490	0.637240	0.332930
N631	N63	0.941150	0.970580	0.666270
N641	N64	0.303910	0.696090	0.000400
N651	N65	0.970580	0.029420	0.333730
N661	N66	0.637240	0.362760	0.667070
N671	N67	0.392180	0.696090	0.000400
N681	N68	0.058850	0.029420	0.333730
N691	N69	0.725510	0.362760	0.667070
N701	N70	0.303910	0.607820	0.000400
N711	N71	0.970580	0.941150	0.333730
N721	N72	0.637240	0.274490	0.667070
