data_YOYWEQ_clean_PM
_symmetry_space_group_name_H-M	'P1'
_cell_length_a	26.852000
_cell_length_b	26.852000
_cell_length_c	9.673500
_cell_angle_alpha	90.000000
_cell_angle_beta	90.000000
_cell_angle_gamma	120.000000
_symmetry_Int_Tables_number 1

loop_
_symmetry_equiv_pos_as_xyz
'x,y,z'

loop_
_atom_site_label
_atom_site_type_symbol
_atom_site_fract_x
_atom_site_fract_y
_atom_site_fract_z
N11	N1	0.557700	0.999300	0.151400
C11	C1	0.481500	0.876300	0.994000
H11	H1	0.521500	0.896500	0.990000
C21	C2	0.453200	0.817800	0.999000
H21	H2	0.474500	0.799100	0.998700
C31	C3	0.597000	0.010400	0.220000
N21	N2	0.224370	0.332630	0.484730
C41	C4	0.148170	0.209630	0.327330
H31	H3	0.188170	0.229830	0.323330
C51	C5	0.119870	0.151130	0.332330
H41	H4	0.141170	0.132430	0.332030
C61	C6	0.263670	0.343730	0.553330
N31	N3	0.891030	0.665970	0.818070
C71	C7	0.814830	0.542970	0.660670
H51	H5	0.854830	0.563170	0.656670
C81	C8	0.786530	0.484470	0.665670
H61	H6	0.807830	0.465770	0.665370
C91	C9	0.930330	0.677070	0.886670
N41	N4	0.000700	0.558400	0.151400
C101	C10	0.123700	0.605200	0.994000
H71	H7	0.103500	0.625000	0.990000
C111	C11	0.182200	0.635400	0.999000
H81	H8	0.200900	0.675400	0.998700
C121	C12	0.989600	0.586600	0.220000
N51	N5	0.667370	0.891730	0.484730
C131	C13	0.790370	0.938530	0.327330
H91	H9	0.770170	0.958330	0.323330
C141	C14	0.848870	0.968730	0.332330
H101	H10	0.867570	0.008730	0.332030
C151	C15	0.656270	0.919930	0.553330
N61	N6	0.334030	0.225070	0.818070
C161	C16	0.457030	0.271870	0.660670
H111	H11	0.436830	0.291670	0.656670
C171	C17	0.515530	0.302070	0.665670
H121	H12	0.534230	0.342070	0.665370
C181	C18	0.322930	0.253270	0.886670
N71	N7	0.441600	0.442300	0.151400
C191	C19	0.394800	0.518500	0.994000
H131	H13	0.375000	0.478500	0.990000
C201	C20	0.364600	0.546800	0.999000
H141	H14	0.324600	0.525500	0.998700
C211	C21	0.413400	0.403000	0.220000
N81	N8	0.108270	0.775630	0.484730
C221	C22	0.061470	0.851830	0.327330
H151	H15	0.041670	0.811830	0.323330
C231	C23	0.031270	0.880130	0.332330
H161	H16	0.991270	0.858830	0.332030
C241	C24	0.080070	0.736330	0.553330
N91	N9	0.774930	0.108970	0.818070
C251	C25	0.728130	0.185170	0.660670
H171	H17	0.708330	0.145170	0.656670
C261	C26	0.697930	0.213470	0.665670
H181	H18	0.657930	0.192170	0.665370
C271	C27	0.746730	0.069670	0.886670
N101	N10	0.999300	0.557700	0.848600
C281	C28	0.876300	0.481500	0.006000
H191	H19	0.896500	0.521500	0.010000
C291	C29	0.817800	0.453200	0.001000
H201	H20	0.799100	0.474500	0.001300
C301	C30	0.010400	0.597000	0.780000
N111	N11	0.665970	0.891030	0.181930
C311	C31	0.542970	0.814830	0.339330
H211	H21	0.563170	0.854830	0.343330
C321	C32	0.484470	0.786530	0.334330
H221	H22	0.465770	0.807830	0.334630
C331	C33	0.677070	0.930330	0.113330
N121	N12	0.332630	0.224370	0.515270
C341	C34	0.209630	0.148170	0.672670
H231	H23	0.229830	0.188170	0.676670
C351	C35	0.151130	0.119870	0.667670
H241	H24	0.132430	0.141170	0.667970
C361	C36	0.343730	0.263670	0.446670
N131	N13	0.558400	0.000700	0.848600
C371	C37	0.605200	0.123700	0.006000
H251	H25	0.625000	0.103500	0.010000
C381	C38	0.635400	0.182200	0.001000
H261	H26	0.675400	0.200900	0.001300
C391	C39	0.586600	0.989600	0.780000
N141	N14	0.225070	0.334030	0.181930
C401	C40	0.271870	0.457030	0.339330
H271	H27	0.291670	0.436830	0.343330
C411	C41	0.302070	0.515530	0.334330
H281	H28	0.342070	0.534230	0.334630
C421	C42	0.253270	0.322930	0.113330
N151	N15	0.891730	0.667370	0.515270
C431	C43	0.938530	0.790370	0.672670
H291	H29	0.958330	0.770170	0.676670
C441	C44	0.968730	0.848870	0.667670
H301	H30	0.008730	0.867570	0.667970
C451	C45	0.919930	0.656270	0.446670
N161	N16	0.442300	0.441600	0.848600
C461	C46	0.518500	0.394800	0.006000
H311	H31	0.478500	0.375000	0.010000
C471	C47	0.546800	0.364600	0.001000
H321	H32	0.525500	0.324600	0.001300
C481	C48	0.403000	0.413400	0.780000
N171	N17	0.108970	0.774930	0.181930
C491	C49	0.185170	0.728130	0.339330
H331	H33	0.145170	0.708330	0.343330
C501	C50	0.213470	0.697930	0.334330
H341	H34	0.192170	0.657930	0.334630
C511	C51	0.069670	0.746730	0.113330
N181	N18	0.775630	0.108270	0.515270
C521	C52	0.851830	0.061470	0.672670
H351	H35	0.811830	0.041670	0.676670
C531	C53	0.880130	0.031270	0.667670
H361	H36	0.858830	0.991270	0.667970
C541	C54	0.736330	0.080070	0.446670
N191	N19	0.442300	0.000700	0.848600
C551	C55	0.518500	0.123700	0.006000
H371	H37	0.478500	0.103500	0.010000
C561	C56	0.546800	0.182200	0.001000
H381	H38	0.525500	0.200900	0.001300
C571	C57	0.403000	0.989600	0.780000
N201	N20	0.108970	0.334030	0.181930
C581	C58	0.185170	0.457030	0.339330
H391	H39	0.145170	0.436830	0.343330
C591	C59	0.213470	0.515530	0.334330
H401	H40	0.192170	0.534230	0.334630
C601	C60	0.069670	0.322930	0.113330
N211	N21	0.775630	0.667370	0.515270
C611	C61	0.851830	0.790370	0.672670
H411	H41	0.811830	0.770170	0.676670
C621	C62	0.880130	0.848870	0.667670
H421	H42	0.858830	0.867570	0.667970
C631	C63	0.736330	0.656270	0.446670
N221	N22	0.999300	0.441600	0.848600
C641	C64	0.876300	0.394800	0.006000
H431	H43	0.896500	0.375000	0.010000
C651	C65	0.817800	0.364600	0.001000
H441	H44	0.799100	0.324600	0.001300
C661	C66	0.010400	0.413400	0.780000
N231	N23	0.665970	0.774930	0.181930
C671	C67	0.542970	0.728130	0.339330
H451	H45	0.563170	0.708330	0.343330
C681	C68	0.484470	0.697930	0.334330
H461	H46	0.465770	0.657930	0.334630
C691	C69	0.677070	0.746730	0.113330
N241	N24	0.332630	0.108270	0.515270
C701	C70	0.209630	0.061470	0.672670
H471	H47	0.229830	0.041670	0.676670
C711	C71	0.151130	0.031270	0.667670
H481	H48	0.132430	0.991270	0.667970
C721	C72	0.343730	0.080070	0.446670
N251	N25	0.558400	0.557700	0.848600
C731	C73	0.605200	0.481500	0.006000
H491	H49	0.625000	0.521500	0.010000
C741	C74	0.635400	0.453200	0.001000
H501	H50	0.675400	0.474500	0.001300
C751	C75	0.586600	0.597000	0.780000
N261	N26	0.225070	0.891030	0.181930
C761	C76	0.271870	0.814830	0.339330
H511	H51	0.291670	0.854830	0.343330
C771	C77	0.302070	0.786530	0.334330
H521	H52	0.342070	0.807830	0.334630
C781	C78	0.253270	0.930330	0.113330
N271	N27	0.891730	0.224370	0.515270
C791	C79	0.938530	0.148170	0.672670
H531	H53	0.958330	0.188170	0.676670
C801	C80	0.968730	0.119870	0.667670
H541	H54	0.008730	0.141170	0.667970
C811	C81	0.919930	0.263670	0.446670
N281	N28	0.000700	0.442300	0.151400
C821	C82	0.123700	0.518500	0.994000
H551	H55	0.103500	0.478500	0.990000
C831	C83	0.182200	0.546800	0.999000
H561	H56	0.200900	0.525500	0.998700
C841	C84	0.989600	0.403000	0.220000
N291	N29	0.667370	0.775630	0.484730
C851	C85	0.790370	0.851830	0.327330
H571	H57	0.770170	0.811830	0.323330
C861	C86	0.848870	0.880130	0.332330
H581	H58	0.867570	0.858830	0.332030
C871	C87	0.656270	0.736330	0.553330
N301	N30	0.334030	0.108970	0.818070
C881	C88	0.457030	0.185170	0.660670
H591	H59	0.436830	0.145170	0.656670
C891	C89	0.515530	0.213470	0.665670
H601	H60	0.534230	0.192170	0.665370
C901	C90	0.322930	0.069670	0.886670
N311	N31	0.441600	0.999300	0.151400
C911	C91	0.394800	0.876300	0.994000
H611	H61	0.375000	0.896500	0.990000
C921	C92	0.364600	0.817800	0.999000
H621	H62	0.324600	0.799100	0.998700
C931	C93	0.413400	0.010400	0.220000
N321	N32	0.108270	0.332630	0.484730
C941	C94	0.061470	0.209630	0.327330
H631	H63	0.041670	0.229830	0.323330
C951	C95	0.031270	0.151130	0.332330
H641	H64	0.991270	0.132430	0.332030
C961	C96	0.080070	0.343730	0.553330
N331	N33	0.774930	0.665970	0.818070
C971	C97	0.728130	0.542970	0.660670
H651	H65	0.708330	0.563170	0.656670
C981	C98	0.697930	0.484470	0.665670
H661	H66	0.657930	0.465770	0.665370
C991	C99	0.746730	0.677070	0.886670
N341	N34	0.557700	0.558400	0.151400
C1001	C100	0.481500	0.605200	0.994000
H671	H67	0.521500	0.625000	0.990000
C1011	C101	0.453200	0.635400	0.999000
H681	H68	0.474500	0.675400	0.998700
C1021	C102	0.597000	0.586600	0.220000
N351	N35	0.224370	0.891730	0.484730
C1031	C103	0.148170	0.938530	0.327330
H691	H69	0.188170	0.958330	0.323330
C1041	C104	0.119870	0.968730	0.332330
H701	H70	0.141170	0.008730	0.332030
C1051	C105	0.263670	0.919930	0.553330
N361	N36	0.891030	0.225070	0.818070
C1061	C106	0.814830	0.271870	0.660670
H711	H71	0.854830	0.291670	0.656670
C1071	C107	0.786530	0.302070	0.665670
H721	H72	0.807830	0.342070	0.665370
C1081	C108	0.930330	0.253270	0.886670
Au11	Au1	0.666670	0.039730	0.333330
Au21	Au2	0.960270	0.626930	0.333330
Au31	Au3	0.373070	0.333330	0.333330
Au41	Au4	0.039730	0.666670	0.666670
Au51	Au5	0.706400	0.000000	0.000000
Au61	Au6	0.626930	0.960270	0.666670
Au71	Au7	0.293600	0.293600	0.000000
Au81	Au8	0.333330	0.373070	0.666670
Au91	Au9	0.000000	0.706400	0.000000
Au101	Au10	0.333330	0.960270	0.666670
Au111	Au11	0.000000	0.293600	0.000000
Au121	Au12	0.039730	0.373070	0.666670
Au131	Au13	0.706400	0.706400	0.000000
Au141	Au14	0.626930	0.666670	0.666670
Au151	Au15	0.293600	0.000000	0.000000
Au161	Au16	0.960270	0.333330	0.333330
Au171	Au17	0.373070	0.039730	0.333330
Au181	Au18	0.666670	0.626930	0.333330
Fe11	Fe1	0.500000	0.000000	0.000000
Fe21	Fe2	0.166670	0.333330	0.333330
Fe31	Fe3	0.833330	0.666670	0.666670
Fe41	Fe4	0.000000	0.500000	0.000000
Fe51	Fe5	0.666670	0.833330	0.333330
Fe61	Fe6	0.333330	0.166670	0.666670
Fe71	Fe7	0.500000	0.500000	0.000000
Fe81	Fe8	0.166670	0.833330	0.333330
Fe91	Fe9	0.833330	0.166670	0.666670
N371	N37	0.452750	0.905500	0.996000
C1091	C109	0.392100	0.784200	0.005000
C1101	C110	0.361750	0.723500	0.996000
N381	N38	0.119420	0.238830	0.329330
C1111	C111	0.058770	0.117530	0.338330
C1121	C112	0.028420	0.056830	0.329330
N391	N39	0.786080	0.572170	0.662670
C1131	C113	0.725430	0.450870	0.671670
C1141	C114	0.695080	0.390170	0.662670
N401	N40	0.094500	0.547250	0.996000
C1151	C115	0.215800	0.607900	0.005000
C1161	C116	0.276500	0.638250	0.996000
N411	N41	0.761170	0.880580	0.329330
C1171	C117	0.882470	0.941230	0.338330
C1181	C118	0.943170	0.971580	0.329330
N421	N42	0.427830	0.213920	0.662670
C1191	C119	0.549130	0.274570	0.671670
C1201	C120	0.609830	0.304920	0.662670
N431	N43	0.452750	0.547250	0.996000
C1211	C121	0.392100	0.607900	0.005000
C1221	C122	0.361750	0.638250	0.996000
N441	N44	0.119420	0.880580	0.329330
C1231	C123	0.058770	0.941230	0.338330
C1241	C124	0.028420	0.971580	0.329330
N451	N45	0.786080	0.213920	0.662670
C1251	C125	0.725430	0.274570	0.671670
C1261	C126	0.695080	0.304920	0.662670
N461	N46	0.905500	0.452750	0.004000
C1271	C127	0.784200	0.392100	0.995000
C1281	C128	0.723500	0.361750	0.004000
N471	N47	0.572170	0.786080	0.337330
C1291	C129	0.450870	0.725430	0.328330
C1301	C130	0.390170	0.695080	0.337330
N481	N48	0.238830	0.119420	0.670670
C1311	C131	0.117530	0.058770	0.661670
C1321	C132	0.056830	0.028420	0.670670
N491	N49	0.547250	0.094500	0.004000
C1331	C133	0.607900	0.215800	0.995000
C1341	C134	0.638250	0.276500	0.004000
N501	N50	0.213920	0.427830	0.337330
C1351	C135	0.274570	0.549130	0.328330
C1361	C136	0.304920	0.609830	0.337330
N511	N51	0.880580	0.761170	0.670670
C1371	C137	0.941230	0.882470	0.661670
C1381	C138	0.971580	0.943170	0.670670
N521	N52	0.547250	0.452750	0.004000
C1391	C139	0.607900	0.392100	0.995000
C1401	C140	0.638250	0.361750	0.004000
N531	N53	0.213920	0.786080	0.337330
C1411	C141	0.274570	0.725430	0.328330
C1421	C142	0.304920	0.695080	0.337330
N541	N54	0.880580	0.119420	0.670670
C1431	C143	0.941230	0.058770	0.661670
C1441	C144	0.971580	0.028420	0.670670
N551	N55	0.302700	0.697300	0.997000
N561	N56	0.969370	0.030630	0.330330
N571	N57	0.636030	0.363970	0.663670
N581	N58	0.302700	0.605400	0.997000
N591	N59	0.969370	0.938730	0.330330
N601	N60	0.636030	0.272070	0.663670
N611	N61	0.394600	0.697300	0.997000
N621	N62	0.061270	0.030630	0.330330
N631	N63	0.727930	0.363970	0.663670
N641	N64	0.697300	0.302700	0.003000
N651	N65	0.363970	0.636030	0.336330
N661	N66	0.030630	0.969370	0.669670
N671	N67	0.605400	0.302700	0.003000
N681	N68	0.272070	0.636030	0.336330
N691	N69	0.938730	0.969370	0.669670
N701	N70	0.697300	0.394600	0.003000
N711	N71	0.363970	0.727930	0.336330
N721	N72	0.030630	0.061270	0.669670
