data_YOYWEQ01_clean_PM
_symmetry_space_group_name_H-M	'P1'
_cell_length_a	26.193400
_cell_length_b	26.193400
_cell_length_c	9.397800
_cell_angle_alpha	90.000000
_cell_angle_beta	90.000000
_cell_angle_gamma	120.000000
_symmetry_Int_Tables_number 1

loop_
_symmetry_equiv_pos_as_xyz
'x,y,z'

loop_
_atom_site_label
_atom_site_type_symbol
_atom_site_fract_x
_atom_site_fract_y
_atom_site_fract_z
C11	C1	0.073000	0.323500	0.116100
N11	N1	0.112000	0.331100	0.189300
C21	C2	0.151500	0.215300	0.339700
H11	H1	0.192600	0.236100	0.342900
C31	C3	0.122600	0.154100	0.337900
H21	H2	0.144200	0.134700	0.338400
C41	C4	0.739670	0.656830	0.449430
N21	N2	0.778670	0.664430	0.522630
C51	C5	0.818170	0.548630	0.673030
H31	H3	0.859270	0.569430	0.676230
C61	C6	0.789270	0.487430	0.671230
H41	H4	0.810870	0.468030	0.671730
C71	C7	0.406330	0.990170	0.782770
N31	N3	0.445330	0.997770	0.855970
C81	C8	0.484830	0.881970	0.006370
H51	H5	0.525930	0.902770	0.009570
C91	C9	0.455930	0.820770	0.004570
H61	H6	0.477530	0.801370	0.005070
C101	C10	0.676500	0.749500	0.116100
N41	N4	0.668900	0.780900	0.189300
C111	C11	0.784700	0.936200	0.339700
H71	H7	0.763900	0.956500	0.342900
C121	C12	0.845900	0.968500	0.337900
H81	H8	0.865300	0.009500	0.338400
C131	C13	0.343170	0.082830	0.449430
N51	N5	0.335570	0.114230	0.522630
C141	C14	0.451370	0.269530	0.673030
H91	H9	0.430570	0.289830	0.676230
C151	C15	0.512570	0.301830	0.671230
H101	H10	0.531970	0.342830	0.671730
C161	C16	0.009830	0.416170	0.782770
N61	N6	0.002230	0.447570	0.855970
C171	C17	0.118030	0.602870	0.006370
H111	H11	0.097230	0.623170	0.009570
C181	C18	0.179230	0.635170	0.004570
H121	H12	0.198630	0.676170	0.005070
C191	C19	0.250500	0.927000	0.116100
N71	N7	0.219100	0.888000	0.189300
C201	C20	0.063800	0.848500	0.339700
H131	H13	0.043500	0.807400	0.342900
C211	C21	0.031500	0.877400	0.337900
H141	H14	0.990500	0.855800	0.338400
C221	C22	0.917170	0.260330	0.449430
N81	N8	0.885770	0.221330	0.522630
C231	C23	0.730470	0.181830	0.673030
H151	H15	0.710170	0.140730	0.676230
C241	C24	0.698170	0.210730	0.671230
H161	H16	0.657170	0.189130	0.671730
C251	C25	0.583830	0.593670	0.782770
N91	N9	0.552430	0.554670	0.855970
C261	C26	0.397130	0.515170	0.006370
H171	H17	0.376830	0.474070	0.009570
C271	C27	0.364830	0.544070	0.004570
H181	H18	0.323830	0.522470	0.005070
C281	C28	0.323500	0.073000	0.883900
N101	N10	0.331100	0.112000	0.810700
C291	C29	0.215300	0.151500	0.660300
H191	H19	0.236100	0.192600	0.657100
C301	C30	0.154100	0.122600	0.662100
H201	H20	0.134700	0.144200	0.661600
C311	C31	0.990170	0.406330	0.217230
N111	N11	0.997770	0.445330	0.144030
C321	C32	0.881970	0.484830	0.993630
H211	H21	0.902770	0.525930	0.990430
C331	C33	0.820770	0.455930	0.995430
H221	H22	0.801370	0.477530	0.994930
C341	C34	0.656830	0.739670	0.550570
N121	N12	0.664430	0.778670	0.477370
C351	C35	0.548630	0.818170	0.326970
H231	H23	0.569430	0.859270	0.323770
C361	C36	0.487430	0.789270	0.328770
H241	H24	0.468030	0.810870	0.328270
C371	C37	0.749500	0.676500	0.883900
N131	N13	0.780900	0.668900	0.810700
C381	C38	0.936200	0.784700	0.660300
H251	H25	0.956500	0.763900	0.657100
C391	C39	0.968500	0.845900	0.662100
H261	H26	0.009500	0.865300	0.661600
C401	C40	0.416170	0.009830	0.217230
N141	N14	0.447570	0.002230	0.144030
C411	C41	0.602870	0.118030	0.993630
H271	H27	0.623170	0.097230	0.990430
C421	C42	0.635170	0.179230	0.995430
H281	H28	0.676170	0.198630	0.994930
C431	C43	0.082830	0.343170	0.550570
N151	N15	0.114230	0.335570	0.477370
C441	C44	0.269530	0.451370	0.326970
H291	H29	0.289830	0.430570	0.323770
C451	C45	0.301830	0.512570	0.328770
H301	H30	0.342830	0.531970	0.328270
C461	C46	0.927000	0.250500	0.883900
N161	N16	0.888000	0.219100	0.810700
C471	C47	0.848500	0.063800	0.660300
H311	H31	0.807400	0.043500	0.657100
C481	C48	0.877400	0.031500	0.662100
H321	H32	0.855800	0.990500	0.661600
C491	C49	0.593670	0.583830	0.217230
N171	N17	0.554670	0.552430	0.144030
C501	C50	0.515170	0.397130	0.993630
H331	H33	0.474070	0.376830	0.990430
C511	C51	0.544070	0.364830	0.995430
H341	H34	0.522470	0.323830	0.994930
C521	C52	0.260330	0.917170	0.550570
N181	N18	0.221330	0.885770	0.477370
C531	C53	0.181830	0.730470	0.326970
H351	H35	0.140730	0.710170	0.323770
C541	C54	0.210730	0.698170	0.328770
H361	H36	0.189130	0.657170	0.328270
C551	C55	0.927000	0.676500	0.883900
N191	N19	0.888000	0.668900	0.810700
C561	C56	0.848500	0.784700	0.660300
H371	H37	0.807400	0.763900	0.657100
C571	C57	0.877400	0.845900	0.662100
H381	H38	0.855800	0.865300	0.661600
C581	C58	0.593670	0.009830	0.217230
N201	N20	0.554670	0.002230	0.144030
C591	C59	0.515170	0.118030	0.993630
H391	H39	0.474070	0.097230	0.990430
C601	C60	0.544070	0.179230	0.995430
H401	H40	0.522470	0.198630	0.994930
C611	C61	0.260330	0.343170	0.550570
N211	N21	0.221330	0.335570	0.477370
C621	C62	0.181830	0.451370	0.326970
H411	H41	0.140730	0.430570	0.323770
C631	C63	0.210730	0.512570	0.328770
H421	H42	0.189130	0.531970	0.328270
C641	C64	0.323500	0.250500	0.883900
N221	N22	0.331100	0.219100	0.810700
C651	C65	0.215300	0.063800	0.660300
H431	H43	0.236100	0.043500	0.657100
C661	C66	0.154100	0.031500	0.662100
H441	H44	0.134700	0.990500	0.661600
C671	C67	0.990170	0.583830	0.217230
N231	N23	0.997770	0.552430	0.144030
C681	C68	0.881970	0.397130	0.993630
H451	H45	0.902770	0.376830	0.990430
C691	C69	0.820770	0.364830	0.995430
H461	H46	0.801370	0.323830	0.994930
C701	C70	0.656830	0.917170	0.550570
N241	N24	0.664430	0.885770	0.477370
C711	C71	0.548630	0.730470	0.326970
H471	H47	0.569430	0.710170	0.323770
C721	C72	0.487430	0.698170	0.328770
H481	H48	0.468030	0.657170	0.328270
C731	C73	0.749500	0.073000	0.883900
N251	N25	0.780900	0.112000	0.810700
C741	C74	0.936200	0.151500	0.660300
H491	H49	0.956500	0.192600	0.657100
C751	C75	0.968500	0.122600	0.662100
H501	H50	0.009500	0.144200	0.661600
C761	C76	0.416170	0.406330	0.217230
N261	N26	0.447570	0.445330	0.144030
C771	C77	0.602870	0.484830	0.993630
H511	H51	0.623170	0.525930	0.990430
C781	C78	0.635170	0.455930	0.995430
H521	H52	0.676170	0.477530	0.994930
C791	C79	0.082830	0.739670	0.550570
N271	N27	0.114230	0.778670	0.477370
C801	C80	0.269530	0.818170	0.326970
H531	H53	0.289830	0.859270	0.323770
C811	C81	0.301830	0.789270	0.328770
H541	H54	0.342830	0.810870	0.328270
C821	C82	0.676500	0.927000	0.116100
N281	N28	0.668900	0.888000	0.189300
C831	C83	0.784700	0.848500	0.339700
H551	H55	0.763900	0.807400	0.342900
C841	C84	0.845900	0.877400	0.337900
H561	H56	0.865300	0.855800	0.338400
C851	C85	0.343170	0.260330	0.449430
N291	N29	0.335570	0.221330	0.522630
C861	C86	0.451370	0.181830	0.673030
H571	H57	0.430570	0.140730	0.676230
C871	C87	0.512570	0.210730	0.671230
H581	H58	0.531970	0.189130	0.671730
C881	C88	0.009830	0.593670	0.782770
N301	N30	0.002230	0.554670	0.855970
C891	C89	0.118030	0.515170	0.006370
H591	H59	0.097230	0.474070	0.009570
C901	C90	0.179230	0.544070	0.004570
H601	H60	0.198630	0.522470	0.005070
C911	C91	0.250500	0.323500	0.116100
N311	N31	0.219100	0.331100	0.189300
C921	C92	0.063800	0.215300	0.339700
H611	H61	0.043500	0.236100	0.342900
C931	C93	0.031500	0.154100	0.337900
H621	H62	0.990500	0.134700	0.338400
C941	C94	0.917170	0.656830	0.449430
N321	N32	0.885770	0.664430	0.522630
C951	C95	0.730470	0.548630	0.673030
H631	H63	0.710170	0.569430	0.676230
C961	C96	0.698170	0.487430	0.671230
H641	H64	0.657170	0.468030	0.671730
C971	C97	0.583830	0.990170	0.782770
N331	N33	0.552430	0.997770	0.855970
C981	C98	0.397130	0.881970	0.006370
H651	H65	0.376830	0.902770	0.009570
C991	C99	0.364830	0.820770	0.004570
H661	H66	0.323830	0.801370	0.005070
C1001	C100	0.073000	0.749500	0.116100
N341	N34	0.112000	0.780900	0.189300
C1011	C101	0.151500	0.936200	0.339700
H671	H67	0.192600	0.956500	0.342900
C1021	C102	0.122600	0.968500	0.337900
H681	H68	0.144200	0.009500	0.338400
C1031	C103	0.739670	0.082830	0.449430
N351	N35	0.778670	0.114230	0.522630
C1041	C104	0.818170	0.269530	0.673030
H691	H69	0.859270	0.289830	0.676230
C1051	C105	0.789270	0.301830	0.671230
H701	H70	0.810870	0.342830	0.671730
C1061	C106	0.406330	0.416170	0.782770
N361	N36	0.445330	0.447570	0.855970
C1071	C107	0.484830	0.602870	0.006370
H711	H71	0.525930	0.623170	0.009570
C1081	C108	0.455930	0.635170	0.004570
H721	H72	0.477530	0.676170	0.005070
Au11	Au1	0.000000	0.293770	0.000000
Au21	Au2	0.666670	0.627100	0.333330
Au31	Au3	0.333330	0.960440	0.666670
Au41	Au4	0.706230	0.706230	0.000000
Au51	Au5	0.372900	0.039560	0.333330
Au61	Au6	0.039560	0.372900	0.666670
Au71	Au7	0.293770	0.000000	0.000000
Au81	Au8	0.960440	0.333330	0.333330
Au91	Au9	0.627100	0.666670	0.666670
Au101	Au10	0.000000	0.706230	0.000000
Au111	Au11	0.666670	0.039560	0.333330
Au121	Au12	0.333330	0.372900	0.666670
Au131	Au13	0.293770	0.293770	0.000000
Au141	Au14	0.960440	0.627100	0.333330
Au151	Au15	0.627100	0.960440	0.666670
Au161	Au16	0.706230	0.000000	0.000000
Au171	Au17	0.372900	0.333330	0.333330
Au181	Au18	0.039560	0.666670	0.666670
Fe11	Fe1	0.166670	0.333330	0.333330
Fe21	Fe2	0.666670	0.833330	0.333330
Fe31	Fe3	0.166670	0.833330	0.333330
Fe41	Fe4	0.333330	0.166670	0.666670
Fe51	Fe5	0.000000	0.500000	0.000000
Fe61	Fe6	0.833330	0.666670	0.666670
Fe71	Fe7	0.500000	0.000000	0.000000
Fe81	Fe8	0.833330	0.166670	0.666670
Fe91	Fe9	0.500000	0.500000	0.000000
N371	N37	0.210500	0.421000	0.329800
C1091	C109	0.060950	0.121900	0.335300
C1101	C110	0.029050	0.058100	0.333900
N381	N38	0.877170	0.754330	0.663130
C1111	C111	0.727620	0.455230	0.668630
C1121	C112	0.695720	0.391430	0.667230
N391	N39	0.543830	0.087670	0.996470
C1131	C113	0.394280	0.788570	0.001970
C1141	C114	0.362380	0.724770	0.000570
N401	N40	0.579000	0.789500	0.329800
C1151	C115	0.878100	0.939050	0.335300
C1161	C116	0.941900	0.970950	0.333900
N411	N41	0.245670	0.122830	0.663130
C1171	C117	0.544770	0.272380	0.668630
C1181	C118	0.608570	0.304280	0.667230
N421	N42	0.912330	0.456170	0.996470
C1191	C119	0.211430	0.605720	0.001970
C1201	C120	0.275230	0.637620	0.000570
N431	N43	0.210500	0.789500	0.329800
C1211	C121	0.060950	0.939050	0.335300
C1221	C122	0.029050	0.970950	0.333900
N441	N44	0.877170	0.122830	0.663130
C1231	C123	0.727620	0.272380	0.668630
C1241	C124	0.695720	0.304280	0.667230
N451	N45	0.543830	0.456170	0.996470
C1251	C125	0.394280	0.605720	0.001970
C1261	C126	0.362380	0.637620	0.000570
N461	N46	0.421000	0.210500	0.670200
C1271	C127	0.121900	0.060950	0.664700
C1281	C128	0.058100	0.029050	0.666100
N471	N47	0.087670	0.543830	0.003530
C1291	C129	0.788570	0.394280	0.998030
C1301	C130	0.724770	0.362380	0.999430
N481	N48	0.754330	0.877170	0.336870
C1311	C131	0.455230	0.727620	0.331370
C1321	C132	0.391430	0.695720	0.332770
N491	N49	0.789500	0.579000	0.670200
C1331	C133	0.939050	0.878100	0.664700
C1341	C134	0.970950	0.941900	0.666100
N501	N50	0.456170	0.912330	0.003530
C1351	C135	0.605720	0.211430	0.998030
C1361	C136	0.637620	0.275230	0.999430
N511	N51	0.122830	0.245670	0.336870
C1371	C137	0.272380	0.544770	0.331370
C1381	C138	0.304280	0.608570	0.332770
N521	N52	0.789500	0.210500	0.670200
C1391	C139	0.939050	0.060950	0.664700
C1401	C140	0.970950	0.029050	0.666100
N531	N53	0.456170	0.543830	0.003530
C1411	C141	0.605720	0.394280	0.998030
C1421	C142	0.637620	0.362380	0.999430
N541	N54	0.122830	0.877170	0.336870
C1431	C143	0.272380	0.727620	0.331370
C1441	C144	0.304280	0.695720	0.332770
N551	N55	0.060500	0.030250	0.332500
N561	N56	0.727170	0.363580	0.665830
N571	N57	0.393830	0.696920	0.999170
N581	N58	0.969750	0.030250	0.332500
N591	N59	0.636420	0.363580	0.665830
N601	N60	0.303080	0.696920	0.999170
N611	N61	0.969750	0.939500	0.332500
N621	N62	0.636420	0.272830	0.665830
N631	N63	0.303080	0.606170	0.999170
N641	N64	0.030250	0.060500	0.667500
N651	N65	0.696920	0.393830	0.000830
N661	N66	0.363580	0.727170	0.334170
N671	N67	0.030250	0.969750	0.667500
N681	N68	0.696920	0.303080	0.000830
N691	N69	0.363580	0.636420	0.334170
N701	N70	0.939500	0.969750	0.667500
N711	N71	0.606170	0.303080	0.000830
N721	N72	0.272830	0.636420	0.334170
