data_YOZJEE_clean_PM
_symmetry_space_group_name_H-M	'P1'
_cell_length_a	26.217400
_cell_length_b	26.217400
_cell_length_c	9.573400
_cell_angle_alpha	90.000000
_cell_angle_beta	90.000000
_cell_angle_gamma	120.000000
_symmetry_Int_Tables_number 1

loop_
_symmetry_equiv_pos_as_xyz
'x,y,z'

loop_
_atom_site_label
_atom_site_type_symbol
_atom_site_fract_x
_atom_site_fract_y
_atom_site_fract_z
N11	N1	0.445660	0.998450	0.858700
C11	C1	0.603260	0.118580	0.993800
H11	H1	0.623500	0.097900	0.992100
C21	C2	0.635510	0.179550	0.995700
H21	H2	0.676500	0.199300	0.996200
C31	C3	0.408100	0.993400	0.785900
N21	N2	0.112330	0.331780	0.192030
C41	C4	0.269930	0.451910	0.327130
H31	H3	0.290170	0.431230	0.325430
C51	C5	0.302180	0.512880	0.329030
H41	H4	0.343170	0.532630	0.329530
C61	C6	0.074770	0.326730	0.119230
N31	N3	0.778990	0.665120	0.525370
C71	C7	0.936590	0.785250	0.660470
H51	H5	0.956830	0.764570	0.658770
C81	C8	0.968840	0.846220	0.662370
H61	H6	0.009830	0.865970	0.662870
C91	C9	0.741430	0.660070	0.452570
N41	N4	0.001550	0.447210	0.858700
C101	C10	0.881420	0.484680	0.993800
H71	H7	0.902100	0.525600	0.992100
C111	C11	0.820450	0.455960	0.995700
H81	H8	0.800700	0.477200	0.996200
C121	C12	0.006600	0.414700	0.785900
N51	N5	0.668220	0.780540	0.192030
C131	C13	0.548090	0.818010	0.327130
H91	H9	0.568770	0.858930	0.325430
C141	C14	0.487120	0.789290	0.329030
H101	H10	0.467370	0.810530	0.329530
C151	C15	0.673270	0.748030	0.119230
N61	N6	0.334880	0.113880	0.525370
C161	C16	0.214750	0.151350	0.660470
H111	H11	0.235430	0.192270	0.658770
C171	C17	0.153780	0.122630	0.662370
H121	H12	0.134030	0.143870	0.662870
C181	C18	0.339930	0.081370	0.452570
N71	N7	0.552790	0.554340	0.858700
C191	C19	0.515320	0.396740	0.993800
H131	H13	0.474400	0.376500	0.992100
C201	C20	0.544040	0.364490	0.995700
H141	H14	0.522800	0.323500	0.996200
C211	C21	0.585300	0.591900	0.785900
N81	N8	0.219460	0.887670	0.192030
C221	C22	0.181990	0.730070	0.327130
H151	H15	0.141070	0.709830	0.325430
C231	C23	0.210710	0.697820	0.329030
H161	H16	0.189470	0.656830	0.329530
C241	C24	0.251970	0.925230	0.119230
N91	N9	0.886120	0.221010	0.525370
C251	C25	0.848650	0.063410	0.660470
H171	H17	0.807730	0.043170	0.658770
C261	C26	0.877370	0.031160	0.662370
H181	H18	0.856130	0.990170	0.662870
C271	C27	0.918630	0.258570	0.452570
N101	N10	0.998450	0.445660	0.141300
C281	C28	0.118580	0.603260	0.006200
H191	H19	0.097900	0.623500	0.007900
C291	C29	0.179550	0.635510	0.004300
H201	H20	0.199300	0.676500	0.003800
C301	C30	0.993400	0.408100	0.214100
N111	N11	0.665120	0.778990	0.474630
C311	C31	0.785250	0.936590	0.339530
H211	H21	0.764570	0.956830	0.341230
C321	C32	0.846220	0.968840	0.337630
H221	H22	0.865970	0.009830	0.337130
C331	C33	0.660070	0.741430	0.547430
N121	N12	0.331780	0.112330	0.807970
C341	C34	0.451910	0.269930	0.672870
H231	H23	0.431230	0.290170	0.674570
C351	C35	0.512880	0.302180	0.670970
H241	H24	0.532630	0.343170	0.670470
C361	C36	0.326730	0.074770	0.880770
N131	N13	0.447210	0.001550	0.141300
C371	C37	0.484680	0.881420	0.006200
H251	H25	0.525600	0.902100	0.007900
C381	C38	0.455960	0.820450	0.004300
H261	H26	0.477200	0.800700	0.003800
C391	C39	0.414700	0.006600	0.214100
N141	N14	0.113880	0.334880	0.474630
C401	C40	0.151350	0.214750	0.339530
H271	H27	0.192270	0.235430	0.341230
C411	C41	0.122630	0.153780	0.337630
H281	H28	0.143870	0.134030	0.337130
C421	C42	0.081370	0.339930	0.547430
N151	N15	0.780540	0.668220	0.807970
C431	C43	0.818010	0.548090	0.672870
H291	H29	0.858930	0.568770	0.674570
C441	C44	0.789290	0.487120	0.670970
H301	H30	0.810530	0.467370	0.670470
C451	C45	0.748030	0.673270	0.880770
N161	N16	0.554340	0.552790	0.141300
C461	C46	0.396740	0.515320	0.006200
H311	H31	0.376500	0.474400	0.007900
C471	C47	0.364490	0.544040	0.004300
H321	H32	0.323500	0.522800	0.003800
C481	C48	0.591900	0.585300	0.214100
N171	N17	0.221010	0.886120	0.474630
C491	C49	0.063410	0.848650	0.339530
H331	H33	0.043170	0.807730	0.341230
C501	C50	0.031160	0.877370	0.337630
H341	H34	0.990170	0.856130	0.337130
C511	C51	0.258570	0.918630	0.547430
N181	N18	0.887670	0.219460	0.807970
C521	C52	0.730070	0.181990	0.672870
H351	H35	0.709830	0.141070	0.674570
C531	C53	0.697820	0.210710	0.670970
H361	H36	0.656830	0.189470	0.670470
C541	C54	0.925230	0.251970	0.880770
N191	N19	0.554340	0.001550	0.141300
C551	C55	0.396740	0.881420	0.006200
H371	H37	0.376500	0.902100	0.007900
C561	C56	0.364490	0.820450	0.004300
H381	H38	0.323500	0.800700	0.003800
C571	C57	0.591900	0.006600	0.214100
N201	N20	0.221010	0.334880	0.474630
C581	C58	0.063410	0.214750	0.339530
H391	H39	0.043170	0.235430	0.341230
C591	C59	0.031160	0.153780	0.337630
H401	H40	0.990170	0.134030	0.337130
C601	C60	0.258570	0.339930	0.547430
N211	N21	0.887670	0.668220	0.807970
C611	C61	0.730070	0.548090	0.672870
H411	H41	0.709830	0.568770	0.674570
C621	C62	0.697820	0.487120	0.670970
H421	H42	0.656830	0.467370	0.670470
C631	C63	0.925230	0.673270	0.880770
N221	N22	0.998450	0.552790	0.141300
C641	C64	0.118580	0.515320	0.006200
H431	H43	0.097900	0.474400	0.007900
C651	C65	0.179550	0.544040	0.004300
H441	H44	0.199300	0.522800	0.003800
C661	C66	0.993400	0.585300	0.214100
N231	N23	0.665120	0.886120	0.474630
C671	C67	0.785250	0.848650	0.339530
H451	H45	0.764570	0.807730	0.341230
C681	C68	0.846220	0.877370	0.337630
H461	H46	0.865970	0.856130	0.337130
C691	C69	0.660070	0.918630	0.547430
N241	N24	0.331780	0.219460	0.807970
C701	C70	0.451910	0.181990	0.672870
H471	H47	0.431230	0.141070	0.674570
C711	C71	0.512880	0.210710	0.670970
H481	H48	0.532630	0.189470	0.670470
C721	C72	0.326730	0.251970	0.880770
N251	N25	0.447210	0.445660	0.141300
C731	C73	0.484680	0.603260	0.006200
H491	H49	0.525600	0.623500	0.007900
C741	C74	0.455960	0.635510	0.004300
H501	H50	0.477200	0.676500	0.003800
C751	C75	0.414700	0.408100	0.214100
N261	N26	0.113880	0.778990	0.474630
C761	C76	0.151350	0.936590	0.339530
H511	H51	0.192270	0.956830	0.341230
C771	C77	0.122630	0.968840	0.337630
H521	H52	0.143870	0.009830	0.337130
C781	C78	0.081370	0.741430	0.547430
N271	N27	0.780540	0.112330	0.807970
C791	C79	0.818010	0.269930	0.672870
H531	H53	0.858930	0.290170	0.674570
C801	C80	0.789290	0.302180	0.670970
H541	H54	0.810530	0.343170	0.670470
C811	C81	0.748030	0.074770	0.880770
N281	N28	0.001550	0.554340	0.858700
C821	C82	0.881420	0.396740	0.993800
H551	H55	0.902100	0.376500	0.992100
C831	C83	0.820450	0.364490	0.995700
H561	H56	0.800700	0.323500	0.996200
C841	C84	0.006600	0.591900	0.785900
N291	N29	0.668220	0.887670	0.192030
C851	C85	0.548090	0.730070	0.327130
H571	H57	0.568770	0.709830	0.325430
C861	C86	0.487120	0.697820	0.329030
H581	H58	0.467370	0.656830	0.329530
C871	C87	0.673270	0.925230	0.119230
N301	N30	0.334880	0.221010	0.525370
C881	C88	0.214750	0.063410	0.660470
H591	H59	0.235430	0.043170	0.658770
C891	C89	0.153780	0.031160	0.662370
H601	H60	0.134030	0.990170	0.662870
C901	C90	0.339930	0.258570	0.452570
N311	N31	0.552790	0.998450	0.858700
C911	C91	0.515320	0.118580	0.993800
H611	H61	0.474400	0.097900	0.992100
C921	C92	0.544040	0.179550	0.995700
H621	H62	0.522800	0.199300	0.996200
C931	C93	0.585300	0.993400	0.785900
N321	N32	0.219460	0.331780	0.192030
C941	C94	0.181990	0.451910	0.327130
H631	H63	0.141070	0.431230	0.325430
C951	C95	0.210710	0.512880	0.329030
H641	H64	0.189470	0.532630	0.329530
C961	C96	0.251970	0.326730	0.119230
N331	N33	0.886120	0.665120	0.525370
C971	C97	0.848650	0.785250	0.660470
H651	H65	0.807730	0.764570	0.658770
C981	C98	0.877370	0.846220	0.662370
H661	H66	0.856130	0.865970	0.662870
C991	C99	0.918630	0.660070	0.452570
N341	N34	0.445660	0.447210	0.858700
C1001	C100	0.603260	0.484680	0.993800
H671	H67	0.623500	0.525600	0.992100
C1011	C101	0.635510	0.455960	0.995700
H681	H68	0.676500	0.477200	0.996200
C1021	C102	0.408100	0.414700	0.785900
N351	N35	0.112330	0.780540	0.192030
C1031	C103	0.269930	0.818010	0.327130
H691	H69	0.290170	0.858930	0.325430
C1041	C104	0.302180	0.789290	0.329030
H701	H70	0.343170	0.810530	0.329530
C1051	C105	0.074770	0.748030	0.119230
N361	N36	0.778990	0.113880	0.525370
C1061	C106	0.936590	0.151350	0.660470
H711	H71	0.956830	0.192270	0.658770
C1071	C107	0.968840	0.122630	0.662370
H721	H72	0.009830	0.143870	0.662870
C1081	C108	0.741430	0.081370	0.452570
Ag11	Ag1	0.333330	0.965950	0.666670
Ag21	Ag2	0.000000	0.299280	0.000000
Ag31	Ag3	0.034050	0.367390	0.666670
Ag41	Ag4	0.700720	0.700720	0.000000
Ag51	Ag5	0.632610	0.666670	0.666670
Ag61	Ag6	0.299280	0.000000	0.000000
Ag71	Ag7	0.965950	0.333330	0.333330
Ag81	Ag8	0.367390	0.034050	0.333330
Ag91	Ag9	0.666670	0.632610	0.333330
Ag101	Ag10	0.666670	0.034050	0.333330
Ag111	Ag11	0.965950	0.632610	0.333330
Ag121	Ag12	0.367390	0.333330	0.333330
Ag131	Ag13	0.034050	0.666670	0.666670
Ag141	Ag14	0.700720	0.000000	0.000000
Ag151	Ag15	0.632610	0.965950	0.666670
Ag161	Ag16	0.299280	0.299280	0.000000
Ag171	Ag17	0.333330	0.367390	0.666670
Ag181	Ag18	0.000000	0.700720	0.000000
Fe11	Fe1	0.500000	0.000000	0.000000
Fe21	Fe2	0.166670	0.333330	0.333330
Fe31	Fe3	0.833330	0.666670	0.666670
Fe41	Fe4	0.000000	0.500000	0.000000
Fe51	Fe5	0.666670	0.833330	0.333330
Fe61	Fe6	0.333330	0.166670	0.666670
Fe71	Fe7	0.500000	0.500000	0.000000
Fe81	Fe8	0.166670	0.833330	0.333330
Fe91	Fe9	0.833330	0.166670	0.666670
N371	N37	0.543850	0.087700	0.994400
C1091	C109	0.605250	0.210500	0.996600
C1101	C110	0.638050	0.276100	0.999600
N381	N38	0.210520	0.421030	0.327730
C1111	C111	0.271920	0.543830	0.329930
C1121	C112	0.304720	0.609430	0.332930
N391	N39	0.877180	0.754370	0.661070
C1131	C113	0.938580	0.877170	0.663270
C1141	C114	0.971380	0.942770	0.666270
N401	N40	0.912300	0.456150	0.994400
C1151	C115	0.789500	0.394750	0.996600
C1161	C116	0.723900	0.361950	0.999600
N411	N41	0.578970	0.789480	0.327730
C1171	C117	0.456170	0.728080	0.329930
C1181	C118	0.390570	0.695280	0.332930
N421	N42	0.245630	0.122820	0.661070
C1191	C119	0.122830	0.061420	0.663270
C1201	C120	0.057230	0.028620	0.666270
N431	N43	0.543850	0.456150	0.994400
C1211	C121	0.605250	0.394750	0.996600
C1221	C122	0.638050	0.361950	0.999600
N441	N44	0.210520	0.789480	0.327730
C1231	C123	0.271920	0.728080	0.329930
C1241	C124	0.304720	0.695280	0.332930
N451	N45	0.877180	0.122820	0.661070
C1251	C125	0.938580	0.061420	0.663270
C1261	C126	0.971380	0.028620	0.666270
N461	N46	0.087700	0.543850	0.005600
C1271	C127	0.210500	0.605250	0.003400
C1281	C128	0.276100	0.638050	0.000400
N471	N47	0.754370	0.877180	0.338930
C1291	C129	0.877170	0.938580	0.336730
C1301	C130	0.942770	0.971380	0.333730
N481	N48	0.421030	0.210520	0.672270
C1311	C131	0.543830	0.271920	0.670070
C1321	C132	0.609430	0.304720	0.667070
N491	N49	0.456150	0.912300	0.005600
C1331	C133	0.394750	0.789500	0.003400
C1341	C134	0.361950	0.723900	0.000400
N501	N50	0.122820	0.245630	0.338930
C1351	C135	0.061420	0.122830	0.336730
C1361	C136	0.028620	0.057230	0.333730
N511	N51	0.789480	0.578970	0.672270
C1371	C137	0.728080	0.456170	0.670070
C1381	C138	0.695280	0.390570	0.667070
N521	N52	0.456150	0.543850	0.005600
C1391	C139	0.394750	0.605250	0.003400
C1401	C140	0.361950	0.638050	0.000400
N531	N53	0.122820	0.877180	0.338930
C1411	C141	0.061420	0.938580	0.336730
C1421	C142	0.028620	0.971380	0.333730
N541	N54	0.789480	0.210520	0.672270
C1431	C143	0.728080	0.271920	0.670070
C1441	C144	0.695280	0.304720	0.667070
N551	N55	0.605900	0.302950	0.999000
N561	N56	0.272570	0.636280	0.332330
N571	N57	0.939230	0.969620	0.665670
N581	N58	0.697050	0.302950	0.999000
N591	N59	0.363720	0.636280	0.332330
N601	N60	0.030380	0.969620	0.665670
N611	N61	0.697050	0.394100	0.999000
N621	N62	0.363720	0.727430	0.332330
N631	N63	0.030380	0.060770	0.665670
N641	N64	0.302950	0.605900	0.001000
N651	N65	0.969620	0.939230	0.334330
N661	N66	0.636280	0.272570	0.667670
N671	N67	0.302950	0.697050	0.001000
N681	N68	0.969620	0.030380	0.334330
N691	N69	0.636280	0.363720	0.667670
N701	N70	0.394100	0.697050	0.001000
N711	N71	0.060770	0.030380	0.334330
N721	N72	0.727430	0.363720	0.667670
