data_YOZJEE01_clean_PM
_symmetry_space_group_name_H-M	'P1'
_cell_length_a	26.876100
_cell_length_b	26.876100
_cell_length_c	10.045600
_cell_angle_alpha	90.000000
_cell_angle_beta	90.000000
_cell_angle_gamma	120.000000
_symmetry_Int_Tables_number 1

loop_
_symmetry_equiv_pos_as_xyz
'x,y,z'

loop_
_atom_site_label
_atom_site_type_symbol
_atom_site_fract_x
_atom_site_fract_y
_atom_site_fract_z
N11	N1	0.558820	0.000660	0.146600
C11	C1	0.480150	0.875550	0.005300
H11	H1	0.520100	0.895900	0.005800
C21	C2	0.452790	0.816740	0.005900
H21	H2	0.473900	0.797900	0.008200
C31	C3	0.595800	0.007900	0.213700
N21	N2	0.225490	0.333990	0.479930
C41	C4	0.146820	0.208880	0.338630
H31	H3	0.186770	0.229230	0.339130
C51	C5	0.119460	0.150070	0.339230
H41	H4	0.140570	0.131230	0.341530
C61	C6	0.262470	0.341230	0.547030
N31	N3	0.892150	0.667330	0.813270
C71	C7	0.813480	0.542220	0.671970
H51	H5	0.853430	0.562570	0.672470
C81	C8	0.786120	0.483410	0.672570
H61	H6	0.807230	0.464570	0.674870
C91	C9	0.929130	0.674570	0.880370
N41	N4	0.999340	0.558160	0.146600
C101	C10	0.124450	0.604600	0.005300
H71	H7	0.104100	0.624200	0.005800
C111	C11	0.183260	0.636050	0.005900
H81	H8	0.202100	0.676000	0.008200
C121	C12	0.992100	0.587900	0.213700
N51	N5	0.666010	0.891490	0.479930
C131	C13	0.791120	0.937930	0.338630
H91	H9	0.770770	0.957530	0.339130
C141	C14	0.849930	0.969380	0.339230
H101	H10	0.868770	0.009330	0.341530
C151	C15	0.658770	0.921230	0.547030
N61	N6	0.332670	0.224830	0.813270
C161	C16	0.457780	0.271270	0.671970
H111	H11	0.437430	0.290870	0.672470
C171	C17	0.516590	0.302720	0.672570
H121	H12	0.535430	0.342670	0.674870
C181	C18	0.325430	0.254570	0.880370
N71	N7	0.441840	0.441180	0.146600
C191	C19	0.395400	0.519850	0.005300
H131	H13	0.375800	0.479900	0.005800
C201	C20	0.363950	0.547210	0.005900
H141	H14	0.324000	0.526100	0.008200
C211	C21	0.412100	0.404200	0.213700
N81	N8	0.108510	0.774510	0.479930
C221	C22	0.062070	0.853180	0.338630
H151	H15	0.042470	0.813230	0.339130
C231	C23	0.030620	0.880540	0.339230
H161	H16	0.990670	0.859430	0.341530
C241	C24	0.078770	0.737530	0.547030
N91	N9	0.775170	0.107850	0.813270
C251	C25	0.728730	0.186520	0.671970
H171	H17	0.709130	0.146570	0.672470
C261	C26	0.697280	0.213880	0.672570
H181	H18	0.657330	0.192770	0.674870
C271	C27	0.745430	0.070870	0.880370
N101	N10	0.000660	0.558820	0.853400
C281	C28	0.875550	0.480150	0.994700
H191	H19	0.895900	0.520100	0.994200
C291	C29	0.816740	0.452790	0.994100
H201	H20	0.797900	0.473900	0.991800
C301	C30	0.007900	0.595800	0.786300
N111	N11	0.667330	0.892150	0.186730
C311	C31	0.542220	0.813480	0.328030
H211	H21	0.562570	0.853430	0.327530
C321	C32	0.483410	0.786120	0.327430
H221	H22	0.464570	0.807230	0.325130
C331	C33	0.674570	0.929130	0.119630
N121	N12	0.333990	0.225490	0.520070
C341	C34	0.208880	0.146820	0.661370
H231	H23	0.229230	0.186770	0.660870
C351	C35	0.150070	0.119460	0.660770
H241	H24	0.131230	0.140570	0.658470
C361	C36	0.341230	0.262470	0.452970
N131	N13	0.558160	0.999340	0.853400
C371	C37	0.604600	0.124450	0.994700
H251	H25	0.624200	0.104100	0.994200
C381	C38	0.636050	0.183260	0.994100
H261	H26	0.676000	0.202100	0.991800
C391	C39	0.587900	0.992100	0.786300
N141	N14	0.224830	0.332670	0.186730
C401	C40	0.271270	0.457780	0.328030
H271	H27	0.290870	0.437430	0.327530
C411	C41	0.302720	0.516590	0.327430
H281	H28	0.342670	0.535430	0.325130
C421	C42	0.254570	0.325430	0.119630
N151	N15	0.891490	0.666010	0.520070
C431	C43	0.937930	0.791120	0.661370
H291	H29	0.957530	0.770770	0.660870
C441	C44	0.969380	0.849930	0.660770
H301	H30	0.009330	0.868770	0.658470
C451	C45	0.921230	0.658770	0.452970
N161	N16	0.441180	0.441840	0.853400
C461	C46	0.519850	0.395400	0.994700
H311	H31	0.479900	0.375800	0.994200
C471	C47	0.547210	0.363950	0.994100
H321	H32	0.526100	0.324000	0.991800
C481	C48	0.404200	0.412100	0.786300
N171	N17	0.107850	0.775170	0.186730
C491	C49	0.186520	0.728730	0.328030
H331	H33	0.146570	0.709130	0.327530
C501	C50	0.213880	0.697280	0.327430
H341	H34	0.192770	0.657330	0.325130
C511	C51	0.070870	0.745430	0.119630
N181	N18	0.774510	0.108510	0.520070
C521	C52	0.853180	0.062070	0.661370
H351	H35	0.813230	0.042470	0.660870
C531	C53	0.880540	0.030620	0.660770
H361	H36	0.859430	0.990670	0.658470
C541	C54	0.737530	0.078770	0.452970
N191	N19	0.441180	0.999340	0.853400
C551	C55	0.519850	0.124450	0.994700
H371	H37	0.479900	0.104100	0.994200
C561	C56	0.547210	0.183260	0.994100
H381	H38	0.526100	0.202100	0.991800
C571	C57	0.404200	0.992100	0.786300
N201	N20	0.107850	0.332670	0.186730
C581	C58	0.186520	0.457780	0.328030
H391	H39	0.146570	0.437430	0.327530
C591	C59	0.213880	0.516590	0.327430
H401	H40	0.192770	0.535430	0.325130
C601	C60	0.070870	0.325430	0.119630
N211	N21	0.774510	0.666010	0.520070
C611	C61	0.853180	0.791120	0.661370
H411	H41	0.813230	0.770770	0.660870
C621	C62	0.880540	0.849930	0.660770
H421	H42	0.859430	0.868770	0.658470
C631	C63	0.737530	0.658770	0.452970
N221	N22	0.000660	0.441840	0.853400
C641	C64	0.875550	0.395400	0.994700
H431	H43	0.895900	0.375800	0.994200
C651	C65	0.816740	0.363950	0.994100
H441	H44	0.797900	0.324000	0.991800
C661	C66	0.007900	0.412100	0.786300
N231	N23	0.667330	0.775170	0.186730
C671	C67	0.542220	0.728730	0.328030
H451	H45	0.562570	0.709130	0.327530
C681	C68	0.483410	0.697280	0.327430
H461	H46	0.464570	0.657330	0.325130
C691	C69	0.674570	0.745430	0.119630
N241	N24	0.333990	0.108510	0.520070
C701	C70	0.208880	0.062070	0.661370
H471	H47	0.229230	0.042470	0.660870
C711	C71	0.150070	0.030620	0.660770
H481	H48	0.131230	0.990670	0.658470
C721	C72	0.341230	0.078770	0.452970
N251	N25	0.558160	0.558820	0.853400
C731	C73	0.604600	0.480150	0.994700
H491	H49	0.624200	0.520100	0.994200
C741	C74	0.636050	0.452790	0.994100
H501	H50	0.676000	0.473900	0.991800
C751	C75	0.587900	0.595800	0.786300
N261	N26	0.224830	0.892150	0.186730
C761	C76	0.271270	0.813480	0.328030
H511	H51	0.290870	0.853430	0.327530
C771	C77	0.302720	0.786120	0.327430
H521	H52	0.342670	0.807230	0.325130
C781	C78	0.254570	0.929130	0.119630
N271	N27	0.891490	0.225490	0.520070
C791	C79	0.937930	0.146820	0.661370
H531	H53	0.957530	0.186770	0.660870
C801	C80	0.969380	0.119460	0.660770
H541	H54	0.009330	0.140570	0.658470
C811	C81	0.921230	0.262470	0.452970
N281	N28	0.999340	0.441180	0.146600
C821	C82	0.124450	0.519850	0.005300
H551	H55	0.104100	0.479900	0.005800
C831	C83	0.183260	0.547210	0.005900
H561	H56	0.202100	0.526100	0.008200
C841	C84	0.992100	0.404200	0.213700
N291	N29	0.666010	0.774510	0.479930
C851	C85	0.791120	0.853180	0.338630
H571	H57	0.770770	0.813230	0.339130
C861	C86	0.849930	0.880540	0.339230
H581	H58	0.868770	0.859430	0.341530
C871	C87	0.658770	0.737530	0.547030
N301	N30	0.332670	0.107850	0.813270
C881	C88	0.457780	0.186520	0.671970
H591	H59	0.437430	0.146570	0.672470
C891	C89	0.516590	0.213880	0.672570
H601	H60	0.535430	0.192770	0.674870
C901	C90	0.325430	0.070870	0.880370
N311	N31	0.441840	0.000660	0.146600
C911	C91	0.395400	0.875550	0.005300
H611	H61	0.375800	0.895900	0.005800
C921	C92	0.363950	0.816740	0.005900
H621	H62	0.324000	0.797900	0.008200
C931	C93	0.412100	0.007900	0.213700
N321	N32	0.108510	0.333990	0.479930
C941	C94	0.062070	0.208880	0.338630
H631	H63	0.042470	0.229230	0.339130
C951	C95	0.030620	0.150070	0.339230
H641	H64	0.990670	0.131230	0.341530
C961	C96	0.078770	0.341230	0.547030
N331	N33	0.775170	0.667330	0.813270
C971	C97	0.728730	0.542220	0.671970
H651	H65	0.709130	0.562570	0.672470
C981	C98	0.697280	0.483410	0.672570
H661	H66	0.657330	0.464570	0.674870
C991	C99	0.745430	0.674570	0.880370
N341	N34	0.558820	0.558160	0.146600
C1001	C100	0.480150	0.604600	0.005300
H671	H67	0.520100	0.624200	0.005800
C1011	C101	0.452790	0.636050	0.005900
H681	H68	0.473900	0.676000	0.008200
C1021	C102	0.595800	0.587900	0.213700
N351	N35	0.225490	0.891490	0.479930
C1031	C103	0.146820	0.937930	0.338630
H691	H69	0.186770	0.957530	0.339130
C1041	C104	0.119460	0.969380	0.339230
H701	H70	0.140570	0.009330	0.341530
C1051	C105	0.262470	0.921230	0.547030
N361	N36	0.892150	0.224830	0.813270
C1061	C106	0.813480	0.271270	0.671970
H711	H71	0.853430	0.290870	0.672470
C1071	C107	0.786120	0.302720	0.672570
H721	H72	0.807230	0.342670	0.674870
C1081	C108	0.929130	0.254570	0.880370
N371	N37	0.452550	0.905100	0.004000
C1091	C109	0.392650	0.785300	0.003100
C1101	C110	0.361500	0.723000	0.003100
N381	N38	0.119220	0.238430	0.337330
C1111	C111	0.059320	0.118630	0.336430
C1121	C112	0.028170	0.056330	0.336430
N391	N39	0.785880	0.571770	0.670670
C1131	C113	0.725980	0.451970	0.669770
C1141	C114	0.694830	0.389670	0.669770
N401	N40	0.094900	0.547450	0.004000
C1151	C115	0.214700	0.607350	0.003100
C1161	C116	0.277000	0.638500	0.003100
N411	N41	0.761570	0.880780	0.337330
C1171	C117	0.881370	0.940680	0.336430
C1181	C118	0.943670	0.971830	0.336430
N421	N42	0.428230	0.214120	0.670670
C1191	C119	0.548030	0.274020	0.669770
C1201	C120	0.610330	0.305170	0.669770
N431	N43	0.452550	0.547450	0.004000
C1211	C121	0.392650	0.607350	0.003100
C1221	C122	0.361500	0.638500	0.003100
N441	N44	0.119220	0.880780	0.337330
C1231	C123	0.059320	0.940680	0.336430
C1241	C124	0.028170	0.971830	0.336430
N451	N45	0.785880	0.214120	0.670670
C1251	C125	0.725980	0.274020	0.669770
C1261	C126	0.694830	0.305170	0.669770
N461	N46	0.905100	0.452550	0.996000
C1271	C127	0.785300	0.392650	0.996900
C1281	C128	0.723000	0.361500	0.996900
N471	N47	0.571770	0.785880	0.329330
C1291	C129	0.451970	0.725980	0.330230
C1301	C130	0.389670	0.694830	0.330230
N481	N48	0.238430	0.119220	0.662670
C1311	C131	0.118630	0.059320	0.663570
C1321	C132	0.056330	0.028170	0.663570
N491	N49	0.547450	0.094900	0.996000
C1331	C133	0.607350	0.214700	0.996900
C1341	C134	0.638500	0.277000	0.996900
N501	N50	0.214120	0.428230	0.329330
C1351	C135	0.274020	0.548030	0.330230
C1361	C136	0.305170	0.610330	0.330230
N511	N51	0.880780	0.761570	0.662670
C1371	C137	0.940680	0.881370	0.663570
C1381	C138	0.971830	0.943670	0.663570
N521	N52	0.547450	0.452550	0.996000
C1391	C139	0.607350	0.392650	0.996900
C1401	C140	0.638500	0.361500	0.996900
N531	N53	0.214120	0.785880	0.329330
C1411	C141	0.274020	0.725980	0.330230
C1421	C142	0.305170	0.694830	0.330230
N541	N54	0.880780	0.119220	0.662670
C1431	C143	0.940680	0.059320	0.663570
C1441	C144	0.971830	0.028170	0.663570
Ag11	Ag1	0.666670	0.035040	0.333330
Ag21	Ag2	0.964960	0.631620	0.333330
Ag31	Ag3	0.368380	0.333330	0.333330
Ag41	Ag4	0.035040	0.666670	0.666670
Ag51	Ag5	0.701710	0.000000	0.000000
Ag61	Ag6	0.631620	0.964960	0.666670
Ag71	Ag7	0.298290	0.298290	0.000000
Ag81	Ag8	0.333330	0.368380	0.666670
Ag91	Ag9	0.000000	0.701710	0.000000
Ag101	Ag10	0.333330	0.964960	0.666670
Ag111	Ag11	0.000000	0.298290	0.000000
Ag121	Ag12	0.035040	0.368380	0.666670
Ag131	Ag13	0.701710	0.701710	0.000000
Ag141	Ag14	0.631620	0.666670	0.666670
Ag151	Ag15	0.298290	0.000000	0.000000
Ag161	Ag16	0.964960	0.333330	0.333330
Ag171	Ag17	0.368380	0.035040	0.333330
Ag181	Ag18	0.666670	0.631620	0.333330
Fe11	Fe1	0.500000	0.000000	0.000000
Fe21	Fe2	0.166670	0.333330	0.333330
Fe31	Fe3	0.833330	0.666670	0.666670
Fe41	Fe4	0.000000	0.500000	0.000000
Fe51	Fe5	0.666670	0.833330	0.333330
Fe61	Fe6	0.333330	0.166670	0.666670
Fe71	Fe7	0.500000	0.500000	0.000000
Fe81	Fe8	0.166670	0.833330	0.333330
Fe91	Fe9	0.833330	0.166670	0.666670
N551	N55	0.303910	0.696090	0.004400
N561	N56	0.970580	0.029420	0.337730
N571	N57	0.637240	0.362760	0.671070
N581	N58	0.303910	0.607820	0.004400
N591	N59	0.970580	0.941150	0.337730
N601	N60	0.637240	0.274490	0.671070
N611	N61	0.392180	0.696090	0.004400
N621	N62	0.058850	0.029420	0.337730
N631	N63	0.725510	0.362760	0.671070
N641	N64	0.696090	0.303910	0.995600
N651	N65	0.362760	0.637240	0.328930
N661	N66	0.029420	0.970580	0.662270
N671	N67	0.607820	0.303910	0.995600
N681	N68	0.274490	0.637240	0.328930
N691	N69	0.941150	0.970580	0.662270
N701	N70	0.696090	0.392180	0.995600
N711	N71	0.362760	0.725510	0.328930
N721	N72	0.029420	0.058850	0.662270
