data_YOZKOP_clean_PM
_symmetry_space_group_name_H-M	'P1'
_cell_length_a	11.312800
_cell_length_b	11.312800
_cell_length_c	34.111000
_cell_angle_alpha	90.000000
_cell_angle_beta	90.000000
_cell_angle_gamma	120.000000
_symmetry_Int_Tables_number 1

loop_
_symmetry_equiv_pos_as_xyz
'x,y,z'

loop_
_atom_site_label
_atom_site_type_symbol
_atom_site_fract_x
_atom_site_fract_y
_atom_site_fract_z
N11	N1	0.606540	0.355600	0.873760
N21	N2	0.792900	0.216200	0.829820
H11	H1	0.873800	0.260400	0.839500
H21	H2	0.773400	0.153200	0.812700
N31	N3	0.721890	0.344590	0.868380
C11	C1	0.847500	0.437700	0.887020
C21	C2	0.512100	0.261800	0.850610
H31	H3	0.423300	0.246000	0.848600
C31	C3	0.697100	0.245700	0.841350
C41	C4	0.043100	0.481100	0.924720
H41	H4	0.096700	0.450000	0.936500
C51	C5	0.925000	0.390200	0.905110
H51	H5	0.898000	0.298000	0.904100
C61	C6	0.081200	0.615500	0.926810
H61	H6	0.158500	0.675500	0.940900
C71	C7	0.005300	0.662900	0.908070
H71	H7	0.033300	0.755400	0.909100
C81	C8	0.887700	0.574600	0.887620
H81	H8	0.837200	0.607000	0.874700
C91	C9	0.561600	0.190100	0.829740
C101	C10	0.484800	0.075400	0.802840
O11	O1	0.552230	0.024810	0.787420
O21	O2	0.361130	0.032090	0.796310
N41	N4	0.644400	0.250940	0.207090
N51	N5	0.783800	0.576700	0.163150
H91	H9	0.739600	0.613400	0.172830
H101	H10	0.846800	0.620200	0.146030
N61	N6	0.655410	0.377300	0.201710
C111	C11	0.562300	0.409800	0.220350
C121	C12	0.738200	0.250300	0.183940
H111	H11	0.754000	0.177300	0.181930
C131	C13	0.754300	0.451400	0.174680
C141	C14	0.518900	0.562000	0.258050
H121	H12	0.550000	0.646700	0.269830
C151	C15	0.609800	0.534800	0.238440
H131	H13	0.702000	0.600000	0.237430
C161	C16	0.384500	0.465700	0.260140
H141	H14	0.324500	0.483000	0.274230
C171	C17	0.337100	0.342400	0.241400
H151	H15	0.244600	0.277900	0.242430
C181	C18	0.425400	0.313100	0.220950
H161	H16	0.393000	0.230200	0.208030
C191	C19	0.809900	0.371500	0.163070
C201	C20	0.924600	0.409400	0.136170
O31	O3	0.975190	0.527420	0.120750
O41	O4	0.967910	0.329040	0.129640
N71	N7	0.749060	0.393460	0.540430
N81	N8	0.423300	0.207100	0.496490
H171	H17	0.386600	0.126200	0.506170
H181	H18	0.379800	0.226600	0.479370
N91	N9	0.622700	0.278110	0.535050
C211	C21	0.590200	0.152500	0.553690
C221	C22	0.749700	0.487900	0.517280
H191	H19	0.822700	0.576700	0.515270
C231	C23	0.548600	0.302900	0.508020
C241	C24	0.438000	0.956900	0.591390
H201	H20	0.353300	0.903300	0.603170
C251	C25	0.465200	0.075000	0.571780
H211	H21	0.400000	0.102000	0.570770
C261	C26	0.534300	0.918800	0.593480
H221	H22	0.517000	0.841500	0.607570
C271	C27	0.657600	0.994700	0.574740
H231	H23	0.722100	0.966700	0.575770
C281	C28	0.686900	0.112300	0.554290
H241	H24	0.769800	0.162800	0.541370
C291	C29	0.628500	0.438400	0.496410
C301	C30	0.590600	0.515200	0.469510
O51	O5	0.472580	0.447770	0.454090
O61	O6	0.670960	0.638870	0.462980
N101	N10	0.393460	0.644400	0.373760
N111	N11	0.207100	0.783800	0.329820
H251	H25	0.126200	0.739600	0.339500
H261	H26	0.226600	0.846800	0.312700
N121	N12	0.278110	0.655410	0.368380
C311	C31	0.152500	0.562300	0.387020
C321	C32	0.487900	0.738200	0.350610
H271	H27	0.576700	0.754000	0.348600
C331	C33	0.302900	0.754300	0.341350
C341	C34	0.956900	0.518900	0.424720
H281	H28	0.903300	0.550000	0.436500
C351	C35	0.075000	0.609800	0.405110
H291	H29	0.102000	0.702000	0.404100
C361	C36	0.918800	0.384500	0.426810
H301	H30	0.841500	0.324500	0.440900
C371	C37	0.994700	0.337100	0.408070
H311	H31	0.966700	0.244600	0.409100
C381	C38	0.112300	0.425400	0.387620
H321	H32	0.162800	0.393000	0.374700
C391	C39	0.438400	0.809900	0.329740
C401	C40	0.515200	0.924600	0.302840
O71	O7	0.447770	0.975190	0.287420
O81	O8	0.638870	0.967910	0.296310
N131	N13	0.355600	0.749060	0.707090
N141	N14	0.216200	0.423300	0.663150
H331	H33	0.260400	0.386600	0.672830
H341	H34	0.153200	0.379800	0.646030
N151	N15	0.344590	0.622700	0.701710
C411	C41	0.437700	0.590200	0.720350
C421	C42	0.261800	0.749700	0.683940
H351	H35	0.246000	0.822700	0.681930
C431	C43	0.245700	0.548600	0.674680
C441	C44	0.481100	0.438000	0.758050
H361	H36	0.450000	0.353300	0.769830
C451	C45	0.390200	0.465200	0.738440
H371	H37	0.298000	0.400000	0.737430
C461	C46	0.615500	0.534300	0.760140
H381	H38	0.675500	0.517000	0.774230
C471	C47	0.662900	0.657600	0.741400
H391	H39	0.755400	0.722100	0.742430
C481	C48	0.574600	0.686900	0.720950
H401	H40	0.607000	0.769800	0.708030
C491	C49	0.190100	0.628500	0.663070
C501	C50	0.075400	0.590600	0.636170
O91	O9	0.024810	0.472580	0.620750
O101	O10	0.032090	0.670960	0.629640
N161	N16	0.250940	0.606540	0.040430
N171	N17	0.576700	0.792900	0.996490
H411	H41	0.613400	0.873800	0.006170
H421	H42	0.620200	0.773400	0.979370
N181	N18	0.377300	0.721890	0.035050
C511	C51	0.409800	0.847500	0.053690
C521	C52	0.250300	0.512100	0.017280
H431	H43	0.177300	0.423300	0.015270
C531	C53	0.451400	0.697100	0.008020
C541	C54	0.562000	0.043100	0.091390
H441	H44	0.646700	0.096700	0.103170
C551	C55	0.534800	0.925000	0.071780
H451	H45	0.600000	0.898000	0.070770
C561	C56	0.465700	0.081200	0.093480
H461	H46	0.483000	0.158500	0.107570
C571	C57	0.342400	0.005300	0.074740
H471	H47	0.277900	0.033300	0.075770
C581	C58	0.313100	0.887700	0.054290
H481	H48	0.230200	0.837200	0.041370
C591	C59	0.371500	0.561600	0.996410
C601	C60	0.409400	0.484800	0.969510
O111	O11	0.527420	0.552230	0.954090
O121	O12	0.329040	0.361130	0.962980
N191	N19	0.355600	0.606540	0.459570
N201	N20	0.216200	0.792900	0.503510
H491	H49	0.260400	0.873800	0.493830
H501	H50	0.153200	0.773400	0.520630
N211	N21	0.344590	0.721890	0.464950
C611	C61	0.437700	0.847500	0.446310
C621	C62	0.261800	0.512100	0.482720
H511	H51	0.246000	0.423300	0.484730
C631	C63	0.245700	0.697100	0.491980
C641	C64	0.481100	0.043100	0.408610
H521	H52	0.450000	0.096700	0.396830
C651	C65	0.390200	0.925000	0.428220
H531	H53	0.298000	0.898000	0.429230
C661	C66	0.615500	0.081200	0.406520
H541	H54	0.675500	0.158500	0.392430
C671	C67	0.662900	0.005300	0.425260
H551	H55	0.755400	0.033300	0.424230
C681	C68	0.574600	0.887700	0.445710
H561	H56	0.607000	0.837200	0.458630
C691	C69	0.190100	0.561600	0.503590
C701	C70	0.075400	0.484800	0.530490
O131	O13	0.024810	0.552230	0.545910
O141	O14	0.032090	0.361130	0.537020
N221	N22	0.250940	0.644400	0.126240
N231	N23	0.576700	0.783800	0.170180
H571	H57	0.613400	0.739600	0.160500
H581	H58	0.620200	0.846800	0.187300
N241	N24	0.377300	0.655410	0.131620
C711	C71	0.409800	0.562300	0.112980
C721	C72	0.250300	0.738200	0.149390
H591	H59	0.177300	0.754000	0.151400
C731	C73	0.451400	0.754300	0.158650
C741	C74	0.562000	0.518900	0.075280
H601	H60	0.646700	0.550000	0.063500
C751	C75	0.534800	0.609800	0.094890
H611	H61	0.600000	0.702000	0.095900
C761	C76	0.465700	0.384500	0.073190
H621	H62	0.483000	0.324500	0.059100
C771	C77	0.342400	0.337100	0.091930
H631	H63	0.277900	0.244600	0.090900
C781	C78	0.313100	0.425400	0.112380
H641	H64	0.230200	0.393000	0.125300
C791	C79	0.371500	0.809900	0.170260
C801	C80	0.409400	0.924600	0.197160
O151	O15	0.527420	0.975190	0.212580
O161	O16	0.329040	0.967910	0.203690
N251	N25	0.393460	0.749060	0.792910
N261	N26	0.207100	0.423300	0.836850
H651	H65	0.126200	0.386600	0.827170
H661	H66	0.226600	0.379800	0.853970
N271	N27	0.278110	0.622700	0.798290
C811	C81	0.152500	0.590200	0.779650
C821	C82	0.487900	0.749700	0.816060
H671	H67	0.576700	0.822700	0.818070
C831	C83	0.302900	0.548600	0.825320
C841	C84	0.956900	0.438000	0.741950
H681	H68	0.903300	0.353300	0.730170
C851	C85	0.075000	0.465200	0.761560
H691	H69	0.102000	0.400000	0.762570
C861	C86	0.918800	0.534300	0.739860
H701	H70	0.841500	0.517000	0.725770
C871	C87	0.994700	0.657600	0.758600
H711	H71	0.966700	0.722100	0.757570
C881	C88	0.112300	0.686900	0.779050
H721	H72	0.162800	0.769800	0.791970
C891	C89	0.438400	0.628500	0.836930
C901	C90	0.515200	0.590600	0.863830
O171	O17	0.447770	0.472580	0.879250
O181	O18	0.638870	0.670960	0.870360
N281	N28	0.644400	0.393460	0.959570
N291	N29	0.783800	0.207100	0.003510
H731	H73	0.739600	0.126200	0.993830
H741	H74	0.846800	0.226600	0.020630
N301	N30	0.655410	0.278110	0.964950
C911	C91	0.562300	0.152500	0.946310
C921	C92	0.738200	0.487900	0.982720
H751	H75	0.754000	0.576700	0.984730
C931	C93	0.754300	0.302900	0.991980
C941	C94	0.518900	0.956900	0.908610
H761	H76	0.550000	0.903300	0.896830
C951	C95	0.609800	0.075000	0.928220
H771	H77	0.702000	0.102000	0.929230
C961	C96	0.384500	0.918800	0.906520
H781	H78	0.324500	0.841500	0.892430
C971	C97	0.337100	0.994700	0.925260
H791	H79	0.244600	0.966700	0.924230
C981	C98	0.425400	0.112300	0.945710
H801	H80	0.393000	0.162800	0.958630
C991	C99	0.809900	0.438400	0.003590
C1001	C100	0.924600	0.515200	0.030490
O191	O19	0.975190	0.447770	0.045910
O201	O20	0.967910	0.638870	0.037020
N311	N31	0.749060	0.355600	0.626240
N321	N32	0.423300	0.216200	0.670180
H811	H81	0.386600	0.260400	0.660500
H821	H82	0.379800	0.153200	0.687300
N331	N33	0.622700	0.344590	0.631620
C1011	C101	0.590200	0.437700	0.612980
C1021	C102	0.749700	0.261800	0.649390
H831	H83	0.822700	0.246000	0.651400
C1031	C103	0.548600	0.245700	0.658650
C1041	C104	0.438000	0.481100	0.575280
H841	H84	0.353300	0.450000	0.563500
C1051	C105	0.465200	0.390200	0.594890
H851	H85	0.400000	0.298000	0.595900
C1061	C106	0.534300	0.615500	0.573190
H861	H86	0.517000	0.675500	0.559100
C1071	C107	0.657600	0.662900	0.591930
H871	H87	0.722100	0.755400	0.590900
C1081	C108	0.686900	0.574600	0.612380
H881	H88	0.769800	0.607000	0.625300
C1091	C109	0.628500	0.190100	0.670260
C1101	C110	0.590600	0.075400	0.697160
O211	O21	0.472580	0.024810	0.712580
O221	O22	0.670960	0.032090	0.703690
N341	N34	0.606540	0.250940	0.292910
N351	N35	0.792900	0.576700	0.336850
H891	H89	0.873800	0.613400	0.327170
H901	H90	0.773400	0.620200	0.353970
N361	N36	0.721890	0.377300	0.298290
C1111	C111	0.847500	0.409800	0.279650
C1121	C112	0.512100	0.250300	0.316060
H911	H91	0.423300	0.177300	0.318070
C1131	C113	0.697100	0.451400	0.325320
C1141	C114	0.043100	0.562000	0.241950
H921	H92	0.096700	0.646700	0.230170
C1151	C115	0.925000	0.534800	0.261560
H931	H93	0.898000	0.600000	0.262570
C1161	C116	0.081200	0.465700	0.239860
H941	H94	0.158500	0.483000	0.225770
C1171	C117	0.005300	0.342400	0.258600
H951	H95	0.033300	0.277900	0.257570
C1181	C118	0.887700	0.313100	0.279050
H961	H96	0.837200	0.230200	0.291970
C1191	C119	0.561600	0.371500	0.336930
C1201	C120	0.484800	0.409400	0.363830
O231	O23	0.552230	0.527420	0.379250
O241	O24	0.361130	0.329040	0.370360
Cu11	Cu1	0.558530	0.441470	0.916670
Cu21	Cu2	0.558530	0.117060	0.250000
Cu31	Cu3	0.882940	0.441470	0.583330
Cu41	Cu4	0.441470	0.558530	0.416670
Cu51	Cu5	0.441470	0.882940	0.750000
Cu61	Cu6	0.117060	0.558530	0.083330
