data_YOZQEK_clean_PM
_symmetry_space_group_name_H-M	'P1'
_cell_length_a	21.441000
_cell_length_b	23.212000
_cell_length_c	24.646000
_cell_angle_alpha	68.100000
_cell_angle_beta	67.490000
_cell_angle_gamma	79.990000
_symmetry_Int_Tables_number 1

loop_
_symmetry_equiv_pos_as_xyz
'x,y,z'

loop_
_atom_site_label
_atom_site_type_symbol
_atom_site_fract_x
_atom_site_fract_y
_atom_site_fract_z
Zn11	Zn1	0.742030	0.189200	0.226610
Zn21	Zn2	0.093230	0.800130	0.807710
Zn31	Zn3	0.759220	0.308720	0.092340
Zn41	Zn4	0.830550	0.083280	0.274530
Zn51	Zn5	0.197420	0.795600	0.677780
Zn61	Zn6	0.318980	0.674220	0.763680
S11	S1	0.593930	0.858770	0.490610
O11	O1	0.390780	0.717900	0.683210
O21	O2	0.297300	0.776670	0.680800
C11	C1	0.360400	0.765900	0.657500
C21	C2	0.400000	0.813600	0.598300
C31	C3	0.367800	0.865900	0.568800
H11	H1	0.320900	0.869300	0.583000
C41	C4	0.468100	0.807200	0.577200
H21	H2	0.490000	0.771500	0.596000
C51	C5	0.404500	0.912500	0.518900
H31	H3	0.382000	0.947500	0.500000
C61	C6	0.504900	0.855700	0.526100
C71	C7	0.473800	0.908800	0.496000
C81	C8	0.521300	0.954000	0.445600
C91	C9	0.508300	0.012800	0.409200
H41	H4	0.464000	0.027600	0.414000
C101	C10	0.588300	0.933600	0.438400
C111	C11	0.560800	0.049000	0.365900
H51	H5	0.551600	0.088500	0.341000
C121	C12	0.641700	0.968500	0.394000
H61	H6	0.685800	0.952600	0.388000
C131	C13	0.628200	0.028700	0.357800
C141	C14	0.686500	0.070100	0.310500
O31	O3	0.745000	0.044830	0.302140
O41	O4	0.672040	0.125800	0.285660
O51	O5	0.623800	0.860000	0.532400
O61	O6	0.621500	0.814600	0.457100
S21	S2	0.976770	0.893010	0.507050
O71	O7	0.787000	0.110600	0.392180
O81	O8	0.860700	0.045500	0.346800
C151	C15	0.829300	0.066000	0.392100
C161	C16	0.850300	0.031100	0.448600
C171	C17	0.899000	0.983700	0.446600
H71	H7	0.918400	0.971300	0.411700
C181	C18	0.822200	0.048900	0.500100
H81	H8	0.789400	0.081000	0.500100
C191	C19	0.840700	0.021000	0.552300
H91	H9	0.821300	0.034200	0.586700
C201	C20	0.917400	0.956100	0.497400
C211	C21	0.889700	0.972200	0.551800
C221	C22	0.922300	0.937300	0.598400
C231	C23	0.909400	0.943100	0.654400
H101	H10	0.875400	0.970200	0.668900
C241	C24	0.973200	0.896000	0.578500
C251	C25	0.001600	0.866800	0.666700
C261	C26	0.047100	0.834300	0.707400
C271	C27	0.014600	0.861800	0.611200
H111	H11	0.050000	0.836400	0.595300
C281	C28	0.949900	0.905900	0.690600
H121	H12	0.941900	0.907900	0.729700
O91	O9	0.098700	0.810130	0.677100
O101	O10	0.029100	0.832200	0.762800
O111	O11	0.041600	0.911600	0.459900
O121	O12	0.949900	0.836600	0.516300
S31	S3	0.543010	0.451080	0.912770
O131	O13	0.267500	0.601650	0.893050
O141	O14	0.363280	0.602850	0.812700
C291	C29	0.325600	0.582800	0.870900
C301	C30	0.360000	0.534500	0.912400
C311	C31	0.429400	0.519900	0.889900
H131	H13	0.455600	0.538800	0.848400
C321	C32	0.323100	0.506700	0.974300
H141	H14	0.277200	0.516900	0.989000
C331	C33	0.457600	0.476600	0.931200
C341	C34	0.352200	0.464100	0.015100
H151	H15	0.326300	0.446000	0.056900
C351	C35	0.420400	0.448300	0.993500
C361	C36	0.463300	0.405900	0.027400
C371	C37	0.444600	0.369700	0.090500
H161	H16	0.399600	0.368600	0.116400
C381	C38	0.529500	0.404900	0.992200
C391	C39	0.493700	0.335400	0.114000
H171	H17	0.480600	0.309800	0.155600
C401	C40	0.579900	0.372000	0.016600
H181	H18	0.625100	0.373500	0.991100
C411	C41	0.560500	0.337700	0.078600
C421	C42	0.611000	0.306500	0.107600
O151	O15	0.673000	0.316840	0.072220
O161	O16	0.594700	0.271540	0.163300
O171	O17	0.587800	0.500700	0.890600
O181	O18	0.559800	0.412800	0.875800
S41	S4	0.876810	0.572110	0.074170
O191	O19	0.751400	0.362400	0.242050
O201	O20	0.834880	0.291900	0.256530
C431	C43	0.812600	0.345700	0.233600
C441	C44	0.863300	0.392600	0.192900
C451	C45	0.842000	0.451600	0.162000
H191	H19	0.796300	0.461800	0.169000
C461	C46	0.933700	0.379700	0.181800
H201	H20	0.948100	0.340900	0.203600
C471	C47	0.981500	0.423600	0.139100
H211	H21	0.027300	0.414100	0.132100
C481	C48	0.891400	0.495700	0.120000
C491	C49	0.960400	0.480900	0.107700
C501	C50	0.002900	0.529600	0.054600
C511	C51	0.072800	0.531200	0.025900
H221	H22	0.099800	0.497400	0.040100
C521	C52	0.964000	0.582800	0.031500
C531	C53	0.101800	0.582200	0.977000
H231	H23	0.148600	0.582600	0.958000
C541	C54	0.992200	0.633000	0.983400
H241	H24	0.965400	0.666900	0.969100
C551	C55	0.062700	0.633800	0.954800
C561	C56	0.096800	0.688200	0.899800
O211	O21	0.054830	0.726500	0.875420
O221	O22	0.157600	0.697020	0.880980
O231	O23	0.841310	0.573550	0.034500
O241	O24	0.849900	0.611400	0.112300
S51	S5	0.952010	0.117500	0.899810
O251	O25	0.101500	0.950320	0.788100
O261	O26	0.063800	0.857300	0.857020
C571	C57	0.064300	0.916400	0.841200
C581	C58	0.021100	0.947200	0.884400
C591	C59	0.983900	0.912600	0.947600
H251	H25	0.988000	0.869500	0.960200
C601	C60	0.012800	0.010900	0.867300
H261	H26	0.035600	0.035800	0.826700
C611	C61	0.944800	0.937800	0.988500
H271	H27	0.922900	0.912800	0.029300
C621	C62	0.971000	0.037300	0.910000
C631	C63	0.935400	0.002000	0.971700
C641	C64	0.895100	0.038200	0.011500
C651	C65	0.854000	0.020200	0.074400
H281	H28	0.847000	0.978300	0.097300
C661	C66	0.898500	0.104500	0.978200
C671	C67	0.867700	0.145800	0.006400
H291	H29	0.871700	0.188100	0.983800
C681	C68	0.824500	0.063100	0.102200
H301	H30	0.799900	0.050000	0.144800
C691	C69	0.829800	0.126300	0.069100
C701	C70	0.797100	0.168400	0.104100
O271	O27	0.772100	0.148000	0.163400
O281	O28	0.797000	0.227400	0.071900
O291	O29	0.010900	0.148400	0.887500
O301	O30	0.914300	0.143800	0.858100
O311	O31	0.819520	0.173190	0.250850
O321	O32	0.703550	0.269150	0.188650
Zn71	Zn7	0.257970	0.810800	0.773390
Zn81	Zn8	0.906770	0.199870	0.192290
Zn91	Zn9	0.240780	0.691280	0.907660
Zn101	Zn10	0.169450	0.916720	0.725470
Zn111	Zn11	0.802580	0.204400	0.322220
Zn121	Zn12	0.681020	0.325780	0.236320
S61	S6	0.406070	0.141230	0.509390
O331	O33	0.609220	0.282100	0.316790
O341	O34	0.702700	0.223330	0.319200
C711	C71	0.639600	0.234100	0.342500
C721	C72	0.600000	0.186400	0.401700
C731	C73	0.632200	0.134100	0.431200
H311	H31	0.679100	0.130700	0.417000
C741	C74	0.531900	0.192800	0.422800
H321	H32	0.510000	0.228500	0.404000
C751	C75	0.595500	0.087500	0.481100
H331	H33	0.618000	0.052500	0.500000
C761	C76	0.495100	0.144300	0.473900
C771	C77	0.526200	0.091200	0.504000
C781	C78	0.478700	0.046000	0.554400
C791	C79	0.491700	0.987200	0.590800
H341	H34	0.536000	0.972400	0.586000
C801	C80	0.411700	0.066400	0.561600
C811	C81	0.439200	0.951000	0.634100
H351	H35	0.448400	0.911500	0.659000
C821	C82	0.358300	0.031500	0.606000
H361	H36	0.314200	0.047400	0.612000
C831	C83	0.371800	0.971300	0.642200
C841	C84	0.313500	0.929900	0.689500
O351	O35	0.255000	0.955170	0.697860
O361	O36	0.327960	0.874200	0.714340
O371	O37	0.376200	0.140000	0.467600
O381	O38	0.378500	0.185400	0.542900
S71	S7	0.023230	0.106990	0.492950
O391	O39	0.213000	0.889400	0.607820
O401	O40	0.139300	0.954500	0.653200
C851	C85	0.170700	0.934000	0.607900
C861	C86	0.149700	0.968900	0.551400
C871	C87	0.101000	0.016300	0.553400
H371	H37	0.081600	0.028700	0.588300
C881	C88	0.177800	0.951100	0.499900
H381	H38	0.210600	0.919000	0.499900
C891	C89	0.159300	0.979000	0.447700
H391	H39	0.178700	0.965800	0.413300
C901	C90	0.082600	0.043900	0.502600
C911	C91	0.110300	0.027800	0.448200
C921	C92	0.077700	0.062700	0.401600
C931	C93	0.090600	0.056900	0.345600
H401	H40	0.124600	0.029800	0.331100
C941	C94	0.026800	0.104000	0.421500
C951	C95	0.998400	0.133200	0.333300
C961	C96	0.952900	0.165700	0.292600
C971	C97	0.985400	0.138200	0.388800
H411	H41	0.950000	0.163600	0.404700
C981	C98	0.050100	0.094100	0.309400
H421	H42	0.058100	0.092100	0.270300
O411	O41	0.901300	0.189870	0.322900
O421	O42	0.970900	0.167800	0.237200
O431	O43	0.958400	0.088400	0.540100
O441	O44	0.050100	0.163400	0.483700
S81	S8	0.456990	0.548920	0.087230
O451	O45	0.732500	0.398350	0.106950
O461	O46	0.636720	0.397150	0.187300
C991	C99	0.674400	0.417200	0.129100
C1001	C100	0.640000	0.465500	0.087600
C1011	C101	0.570600	0.480100	0.110100
H431	H43	0.544400	0.461200	0.151600
C1021	C102	0.676900	0.493300	0.025700
H441	H44	0.722800	0.483100	0.011000
C1031	C103	0.542400	0.523400	0.068800
C1041	C104	0.647800	0.535900	0.984900
H451	H45	0.673700	0.554000	0.943100
C1051	C105	0.579600	0.551700	0.006500
C1061	C106	0.536700	0.594100	0.972600
C1071	C107	0.555400	0.630300	0.909500
H461	H46	0.600400	0.631400	0.883600
C1081	C108	0.470500	0.595100	0.007800
C1091	C109	0.506300	0.664600	0.886000
H471	H47	0.519400	0.690200	0.844400
C1101	C110	0.420100	0.628000	0.983400
H481	H48	0.374900	0.626500	0.008900
C1111	C111	0.439500	0.662300	0.921400
C1121	C112	0.389000	0.693500	0.892400
O471	O47	0.327000	0.683160	0.927780
O481	O48	0.405300	0.728460	0.836700
O491	O49	0.412200	0.499300	0.109400
O501	O50	0.440200	0.587200	0.124200
S91	S9	0.123190	0.427890	0.925830
O511	O51	0.248600	0.637600	0.757950
O521	O52	0.165120	0.708100	0.743470
C1131	C113	0.187400	0.654300	0.766400
C1141	C114	0.136700	0.607400	0.807100
C1151	C115	0.158000	0.548400	0.838000
H491	H49	0.203700	0.538200	0.831000
C1161	C116	0.066300	0.620300	0.818200
H501	H50	0.051900	0.659100	0.796400
C1171	C117	0.018500	0.576400	0.860900
H511	H51	0.972700	0.585900	0.867900
C1181	C118	0.108600	0.504300	0.880000
C1191	C119	0.039600	0.519100	0.892300
C1201	C120	0.997100	0.470400	0.945400
C1211	C121	0.927200	0.468800	0.974100
H521	H52	0.900200	0.502600	0.959900
C1221	C122	0.036000	0.417200	0.968500
C1231	C123	0.898200	0.417800	0.023000
H531	H53	0.851400	0.417400	0.042000
C1241	C124	0.007800	0.367000	0.016600
H541	H54	0.034600	0.333100	0.030900
C1251	C125	0.937300	0.366200	0.045200
C1261	C126	0.903200	0.311800	0.100200
O531	O53	0.945170	0.273500	0.124580
O541	O54	0.842400	0.302980	0.119020
O551	O55	0.158690	0.426450	0.965500
O561	O56	0.150100	0.388600	0.887700
S101	S10	0.047990	0.882500	0.100190
O571	O57	0.898500	0.049680	0.211900
O581	O58	0.936200	0.142700	0.142980
C1271	C127	0.935700	0.083600	0.158800
C1281	C128	0.978900	0.052800	0.115600
C1291	C129	0.016100	0.087400	0.052400
H551	H55	0.012000	0.130500	0.039800
C1301	C130	0.987200	0.989100	0.132700
H561	H56	0.964400	0.964200	0.173300
C1311	C131	0.055200	0.062200	0.011500
H571	H57	0.077100	0.087200	0.970700
C1321	C132	0.029000	0.962700	0.090000
C1331	C133	0.064600	0.998000	0.028300
C1341	C134	0.104900	0.961800	0.988500
C1351	C135	0.146000	0.979800	0.925600
H581	H58	0.153000	0.021700	0.902700
C1361	C136	0.101500	0.895500	0.021800
C1371	C137	0.132300	0.854200	0.993600
H591	H59	0.128300	0.811900	0.016200
C1381	C138	0.175500	0.936900	0.897800
H601	H60	0.200100	0.950000	0.855200
C1391	C139	0.170200	0.873700	0.930900
C1401	C140	0.202900	0.831600	0.895900
O591	O59	0.227900	0.852000	0.836600
O601	O60	0.203000	0.772600	0.928100
O611	O61	0.989100	0.851600	0.112500
O621	O62	0.085700	0.856200	0.141900
O631	O63	0.180480	0.826810	0.749150
O641	O64	0.296450	0.730850	0.811350
