data_YOZROW_clean_PM
_symmetry_space_group_name_H-M	'P1'
_cell_length_a	11.352800
_cell_length_b	11.352800
_cell_length_c	23.145000
_cell_angle_alpha	90.000000
_cell_angle_beta	90.000000
_cell_angle_gamma	90.000000
_symmetry_Int_Tables_number 1

loop_
_symmetry_equiv_pos_as_xyz
'x,y,z'

loop_
_atom_site_label
_atom_site_type_symbol
_atom_site_fract_x
_atom_site_fract_y
_atom_site_fract_z
N11	N1	0.072900	0.950500	0.081400
N21	N2	0.156000	0.844400	0.181300
C11	C1	0.068500	0.833100	0.088200
C21	C2	0.114600	0.013900	0.125300
H11	H1	0.115700	0.095600	0.122600
C31	C3	0.155700	0.960700	0.174400
H21	H2	0.184500	0.007800	0.204100
C41	C4	0.109800	0.780600	0.138300
H31	H3	0.105300	0.699200	0.142100
C51	C5	0.017900	0.762400	0.038800
O11	O1	0.017100	0.655000	0.046100
O21	O2	0.982100	0.817500	0.995300
N31	N3	0.427100	0.549500	0.081400
N41	N4	0.344000	0.655600	0.181300
C61	C6	0.431500	0.666900	0.088200
C71	C7	0.385400	0.486100	0.125300
H41	H4	0.384300	0.404400	0.122600
C81	C8	0.344300	0.539300	0.174400
H51	H5	0.315500	0.492200	0.204100
C91	C9	0.390200	0.719400	0.138300
H61	H6	0.394700	0.800800	0.142100
C101	C10	0.482100	0.737600	0.038800
O31	O3	0.482900	0.845000	0.046100
O41	O4	0.517900	0.682500	0.995300
N51	N5	0.549500	0.072900	0.081400
N61	N6	0.655600	0.156000	0.181300
C111	C11	0.666900	0.068500	0.088200
C121	C12	0.486100	0.114600	0.125300
H71	H7	0.404400	0.115700	0.122600
C131	C13	0.539300	0.155700	0.174400
H81	H8	0.492200	0.184500	0.204100
C141	C14	0.719400	0.109800	0.138300
H91	H9	0.800800	0.105300	0.142100
C151	C15	0.737600	0.017900	0.038800
O51	O5	0.845000	0.017100	0.046100
O61	O6	0.682500	0.982100	0.995300
N71	N7	0.950500	0.427100	0.081400
N81	N8	0.844400	0.344000	0.181300
C161	C16	0.833100	0.431500	0.088200
C171	C17	0.013900	0.385400	0.125300
H101	H10	0.095600	0.384300	0.122600
C181	C18	0.960700	0.344300	0.174400
H111	H11	0.007800	0.315500	0.204100
C191	C19	0.780600	0.390200	0.138300
H121	H12	0.699200	0.394700	0.142100
C201	C20	0.762400	0.482100	0.038800
O71	O7	0.655000	0.482900	0.046100
O81	O8	0.817500	0.517900	0.995300
N91	N9	0.927100	0.450500	0.418600
N101	N10	0.844000	0.344400	0.318700
C211	C21	0.931500	0.333100	0.411800
C221	C22	0.885400	0.513900	0.374700
H131	H13	0.884300	0.595600	0.377400
C231	C23	0.844300	0.460700	0.325600
H141	H14	0.815500	0.507800	0.295900
C241	C24	0.890200	0.280600	0.361700
H151	H15	0.894700	0.199200	0.357900
C251	C25	0.982100	0.262400	0.461200
O91	O9	0.982900	0.155000	0.453900
O101	O10	0.017900	0.317500	0.504700
N111	N11	0.572900	0.049500	0.418600
N121	N12	0.656000	0.155600	0.318700
C261	C26	0.568500	0.166900	0.411800
C271	C27	0.614600	0.986100	0.374700
H161	H16	0.615700	0.904400	0.377400
C281	C28	0.655700	0.039300	0.325600
H171	H17	0.684500	0.992200	0.295900
C291	C29	0.609800	0.219400	0.361700
H181	H18	0.605300	0.300800	0.357900
C301	C30	0.517900	0.237600	0.461200
O111	O11	0.517100	0.345000	0.453900
O121	O12	0.482100	0.182500	0.504700
N131	N13	0.450500	0.572900	0.418600
N141	N14	0.344400	0.656000	0.318700
C311	C31	0.333100	0.568500	0.411800
C321	C32	0.513900	0.614600	0.374700
H191	H19	0.595600	0.615700	0.377400
C331	C33	0.460700	0.655700	0.325600
H201	H20	0.507800	0.684500	0.295900
C341	C34	0.280600	0.609800	0.361700
H211	H21	0.199200	0.605300	0.357900
C351	C35	0.262400	0.517900	0.461200
O131	O13	0.155000	0.517100	0.453900
O141	O14	0.317500	0.482100	0.504700
N151	N15	0.049500	0.927100	0.418600
N161	N16	0.155600	0.844000	0.318700
C361	C36	0.166900	0.931500	0.411800
C371	C37	0.986100	0.885400	0.374700
H221	H22	0.904400	0.884300	0.377400
C381	C38	0.039300	0.844300	0.325600
H231	H23	0.992200	0.815500	0.295900
C391	C39	0.219400	0.890200	0.361700
H241	H24	0.300800	0.894700	0.357900
C401	C40	0.237600	0.982100	0.461200
O151	O15	0.345000	0.982900	0.453900
O161	O16	0.182500	0.017900	0.504700
N171	N17	0.927100	0.049500	0.918600
N181	N18	0.844000	0.155600	0.818700
C411	C41	0.931500	0.166900	0.911800
C421	C42	0.885400	0.986100	0.874700
H251	H25	0.884300	0.904400	0.877400
C431	C43	0.844300	0.039300	0.825600
H261	H26	0.815500	0.992200	0.795900
C441	C44	0.890200	0.219400	0.861700
H271	H27	0.894700	0.300800	0.857900
C451	C45	0.982100	0.237600	0.961200
O171	O17	0.982900	0.345000	0.953900
O181	O18	0.017900	0.182500	0.004700
N191	N19	0.572900	0.450500	0.918600
N201	N20	0.656000	0.344400	0.818700
C461	C46	0.568500	0.333100	0.911800
C471	C47	0.614600	0.513900	0.874700
H281	H28	0.615700	0.595600	0.877400
C481	C48	0.655700	0.460700	0.825600
H291	H29	0.684500	0.507800	0.795900
C491	C49	0.609800	0.280600	0.861700
H301	H30	0.605300	0.199200	0.857900
C501	C50	0.517900	0.262400	0.961200
O191	O19	0.517100	0.155000	0.953900
O201	O20	0.482100	0.317500	0.004700
N211	N21	0.450500	0.927100	0.918600
N221	N22	0.344400	0.844000	0.818700
C511	C51	0.333100	0.931500	0.911800
C521	C52	0.513900	0.885400	0.874700
H311	H31	0.595600	0.884300	0.877400
C531	C53	0.460700	0.844300	0.825600
H321	H32	0.507800	0.815500	0.795900
C541	C54	0.280600	0.890200	0.861700
H331	H33	0.199200	0.894700	0.857900
C551	C55	0.262400	0.982100	0.961200
O211	O21	0.155000	0.982900	0.953900
O221	O22	0.317500	0.017900	0.004700
N231	N23	0.049500	0.572900	0.918600
N241	N24	0.155600	0.656000	0.818700
C561	C56	0.166900	0.568500	0.911800
C571	C57	0.986100	0.614600	0.874700
H341	H34	0.904400	0.615700	0.877400
C581	C58	0.039300	0.655700	0.825600
H351	H35	0.992200	0.684500	0.795900
C591	C59	0.219400	0.609800	0.861700
H361	H36	0.300800	0.605300	0.857900
C601	C60	0.237600	0.517900	0.961200
O231	O23	0.345000	0.517100	0.953900
O241	O24	0.182500	0.482100	0.004700
N251	N25	0.072900	0.549500	0.581400
N261	N26	0.156000	0.655600	0.681300
C611	C61	0.068500	0.666900	0.588200
C621	C62	0.114600	0.486100	0.625300
H371	H37	0.115700	0.404400	0.622600
C631	C63	0.155700	0.539300	0.674400
H381	H38	0.184500	0.492200	0.704100
C641	C64	0.109800	0.719400	0.638300
H391	H39	0.105300	0.800800	0.642100
C651	C65	0.017900	0.737600	0.538800
O251	O25	0.017100	0.845000	0.546100
O261	O26	0.982100	0.682500	0.495300
N271	N27	0.427100	0.950500	0.581400
N281	N28	0.344000	0.844400	0.681300
C661	C66	0.431500	0.833100	0.588200
C671	C67	0.385400	0.013900	0.625300
H401	H40	0.384300	0.095600	0.622600
C681	C68	0.344300	0.960700	0.674400
H411	H41	0.315500	0.007800	0.704100
C691	C69	0.390200	0.780600	0.638300
H421	H42	0.394700	0.699200	0.642100
C701	C70	0.482100	0.762400	0.538800
O271	O27	0.482900	0.655000	0.546100
O281	O28	0.517900	0.817500	0.495300
N291	N29	0.549500	0.427100	0.581400
N301	N30	0.655600	0.344000	0.681300
C711	C71	0.666900	0.431500	0.588200
C721	C72	0.486100	0.385400	0.625300
H431	H43	0.404400	0.384300	0.622600
C731	C73	0.539300	0.344300	0.674400
H441	H44	0.492200	0.315500	0.704100
C741	C74	0.719400	0.390200	0.638300
H451	H45	0.800800	0.394700	0.642100
C751	C75	0.737600	0.482100	0.538800
O291	O29	0.845000	0.482900	0.546100
O301	O30	0.682500	0.517900	0.495300
N311	N31	0.950500	0.072900	0.581400
N321	N32	0.844400	0.156000	0.681300
C761	C76	0.833100	0.068500	0.588200
C771	C77	0.013900	0.114600	0.625300
H461	H46	0.095600	0.115700	0.622600
C781	C78	0.960700	0.155700	0.674400
H471	H47	0.007800	0.184500	0.704100
C791	C79	0.780600	0.109800	0.638300
H481	H48	0.699200	0.105300	0.642100
C801	C80	0.762400	0.017900	0.538800
O311	O31	0.655000	0.017100	0.546100
O321	O32	0.817500	0.982100	0.495300
Co11	Co1	0.250000	0.750000	0.250000
Co21	Co2	0.750000	0.250000	0.250000
Co31	Co3	0.750000	0.250000	0.750000
Co41	Co4	0.250000	0.750000	0.750000
Co51	Co5	0.000000	0.000000	0.000000
Co61	Co6	0.500000	0.500000	0.000000
Co71	Co7	0.500000	0.000000	0.000000
Co81	Co8	0.000000	0.500000	0.000000
Co91	Co9	0.000000	0.500000	0.500000
Co101	Co10	0.500000	0.000000	0.500000
Co111	Co11	0.500000	0.500000	0.500000
Co121	Co12	0.000000	0.000000	0.500000
Cl11	Cl1	0.099400	0.599400	0.250000
Cl21	Cl2	0.400600	0.900600	0.250000
Cl31	Cl3	0.900600	0.099400	0.250000
Cl41	Cl4	0.599400	0.400600	0.250000
Cl51	Cl5	0.900600	0.400600	0.750000
Cl61	Cl6	0.599400	0.099400	0.750000
Cl71	Cl7	0.099400	0.900600	0.750000
Cl81	Cl8	0.400600	0.599400	0.750000
