data_YOZRUC_clean_PM
_symmetry_space_group_name_H-M	'P1'
_cell_length_a	8.997800
_cell_length_b	9.463800
_cell_length_c	10.433000
_cell_angle_alpha	90.000000
_cell_angle_beta	90.000000
_cell_angle_gamma	90.000000
_symmetry_Int_Tables_number 1

loop_
_symmetry_equiv_pos_as_xyz
'x,y,z'

loop_
_atom_site_label
_atom_site_type_symbol
_atom_site_fract_x
_atom_site_fract_y
_atom_site_fract_z
Co11	Co1	0.704320	0.052720	0.730990
O11	O1	0.539700	0.915500	0.679500
O21	O2	0.415100	0.716500	0.684800
O31	O3	0.152500	0.347200	0.443100
O41	O4	0.280500	0.479500	0.581100
N11	N1	0.128100	0.385600	0.777000
N21	N2	0.898700	0.188300	0.747700
C11	C1	0.505700	0.801400	0.725900
H11	H1	0.554300	0.776300	0.801200
C21	C2	0.183400	0.390500	0.552700
C31	C3	0.096200	0.333200	0.663800
C41	C4	0.977700	0.235400	0.646900
H21	H2	0.954500	0.203500	0.565000
C51	C5	0.937100	0.241500	0.862900
H31	H3	0.883400	0.213100	0.934600
C61	C6	0.052100	0.335900	0.879400
H41	H4	0.077600	0.365700	0.961500
Co21	Co2	0.795680	0.947280	0.230990
O51	O5	0.960300	0.084500	0.179500
O61	O6	0.084900	0.283500	0.184800
O71	O7	0.347500	0.652800	0.943100
O81	O8	0.219500	0.520500	0.081100
N31	N3	0.371900	0.614400	0.277000
N41	N4	0.601300	0.811700	0.247700
C71	C7	0.994300	0.198600	0.225900
H51	H5	0.945700	0.223700	0.301200
C81	C8	0.316600	0.609500	0.052700
C91	C9	0.403800	0.666800	0.163800
C101	C10	0.522300	0.764600	0.146900
H61	H6	0.545500	0.796500	0.065000
C111	C11	0.562900	0.758500	0.362900
H71	H7	0.616600	0.786900	0.434600
C121	C12	0.447900	0.664100	0.379400
H81	H8	0.422400	0.634300	0.461500
Co31	Co3	0.295680	0.552720	0.769010
O91	O9	0.460300	0.415500	0.820500
O101	O10	0.584900	0.216500	0.815200
O111	O11	0.847500	0.847200	0.056900
O121	O12	0.719500	0.979500	0.918900
N51	N5	0.871900	0.885600	0.723000
N61	N6	0.101300	0.688300	0.752300
C131	C13	0.494300	0.301400	0.774100
H91	H9	0.445700	0.276300	0.698800
C141	C14	0.816600	0.890500	0.947300
C151	C15	0.903800	0.833200	0.836200
C161	C16	0.022300	0.735400	0.853100
H101	H10	0.045500	0.703500	0.935000
C171	C17	0.062900	0.741500	0.637100
H111	H11	0.116600	0.713100	0.565400
C181	C18	0.947900	0.835900	0.620600
H121	H12	0.922400	0.865700	0.538500
Co41	Co4	0.204320	0.447280	0.269010
O131	O13	0.039700	0.584500	0.320500
O141	O14	0.915100	0.783500	0.315200
O151	O15	0.652500	0.152800	0.556900
O161	O16	0.780500	0.020500	0.418900
N71	N7	0.628100	0.114400	0.223000
N81	N8	0.398700	0.311700	0.252300
C191	C19	0.005700	0.698600	0.274100
H131	H13	0.054300	0.723700	0.198800
C201	C20	0.683400	0.109500	0.447300
C211	C21	0.596200	0.166800	0.336200
C221	C22	0.477700	0.264600	0.353100
H141	H14	0.454500	0.296500	0.435000
C231	C23	0.437100	0.258500	0.137100
H151	H15	0.383400	0.286900	0.065400
C241	C24	0.552100	0.164100	0.120600
H161	H16	0.577600	0.134300	0.038500
