data_YOZSAJ_clean_PM
_symmetry_space_group_name_H-M	'P1'
_cell_length_a	8.919900
_cell_length_b	9.456600
_cell_length_c	10.414000
_cell_angle_alpha	90.000000
_cell_angle_beta	90.000000
_cell_angle_gamma	90.000000
_symmetry_Int_Tables_number 1

loop_
_symmetry_equiv_pos_as_xyz
'x,y,z'

loop_
_atom_site_label
_atom_site_type_symbol
_atom_site_fract_x
_atom_site_fract_y
_atom_site_fract_z
Co11	Co1	0.797560	0.553810	0.273990
O11	O1	0.931300	0.390500	0.329600
O21	O2	0.047000	0.190200	0.305700
O31	O3	0.778500	0.480600	0.084600
O41	O4	0.644100	0.353100	0.948200
N11	N1	0.613600	0.399500	0.279000
N21	N2	0.381400	0.208500	0.248800
C11	C1	0.004800	0.306300	0.277000
H11	H1	0.037300	0.335300	0.196400
C21	C2	0.675600	0.397800	0.058200
C31	C3	0.581500	0.345100	0.170400
C41	C4	0.461500	0.251400	0.150500
H21	H2	0.439000	0.220000	0.068100
C51	C5	0.411800	0.261100	0.364700
H31	H3	0.354000	0.232800	0.434500
C61	C6	0.527700	0.357100	0.384000
H41	H4	0.547600	0.392500	0.465600
Co21	Co2	0.702440	0.446190	0.773990
O51	O5	0.568700	0.609500	0.829600
O61	O6	0.453000	0.809800	0.805700
O71	O7	0.721500	0.519400	0.584600
O81	O8	0.855900	0.646900	0.448200
N31	N3	0.886400	0.600500	0.779000
N41	N4	0.118600	0.791500	0.748800
C71	C7	0.495200	0.693700	0.777000
H51	H5	0.462700	0.664700	0.696400
C81	C8	0.824400	0.602200	0.558200
C91	C9	0.918500	0.654900	0.670400
C101	C10	0.038500	0.748600	0.650500
H61	H6	0.061000	0.780000	0.568100
C111	C11	0.088200	0.738900	0.864700
H71	H7	0.146000	0.767200	0.934500
C121	C12	0.972300	0.642900	0.884000
H81	H8	0.952400	0.607500	0.965600
Co31	Co3	0.202440	0.053810	0.226010
O91	O9	0.068700	0.890500	0.170400
O101	O10	0.953000	0.690200	0.194300
O111	O11	0.221500	0.980600	0.415400
O121	O12	0.355900	0.853100	0.551800
N51	N5	0.386400	0.899500	0.221000
N61	N6	0.618600	0.708500	0.251200
C131	C13	0.995200	0.806300	0.223000
H91	H9	0.962700	0.835300	0.303600
C141	C14	0.324400	0.897800	0.441800
C151	C15	0.418500	0.845100	0.329600
C161	C16	0.538500	0.751400	0.349500
H101	H10	0.561000	0.720000	0.431900
C171	C17	0.588200	0.761100	0.135300
H111	H11	0.646000	0.732800	0.065500
C181	C18	0.472300	0.857100	0.116000
H121	H12	0.452400	0.892500	0.034400
Co41	Co4	0.297560	0.946190	0.726010
O131	O13	0.431300	0.109500	0.670400
O141	O14	0.547000	0.309800	0.694300
O151	O15	0.278500	0.019400	0.915400
O161	O16	0.144100	0.146900	0.051800
N71	N7	0.113600	0.100500	0.721000
N81	N8	0.881400	0.291500	0.751200
C191	C19	0.504800	0.193700	0.723000
H131	H13	0.537300	0.164700	0.803600
C201	C20	0.175600	0.102200	0.941800
C211	C21	0.081500	0.154900	0.829600
C221	C22	0.961500	0.248600	0.849500
H141	H14	0.939000	0.280000	0.931900
C231	C23	0.911800	0.238900	0.635300
H151	H15	0.854000	0.267200	0.565500
C241	C24	0.027700	0.142900	0.616000
H161	H16	0.047600	0.107500	0.534400
