data_YUBFOR_clean_PM
_symmetry_space_group_name_H-M	'P1'
_cell_length_a	11.346900
_cell_length_b	12.287100
_cell_length_c	12.287100
_cell_angle_alpha	69.031000
_cell_angle_beta	72.071600
_cell_angle_gamma	107.928000
_symmetry_Int_Tables_number 1

loop_
_symmetry_equiv_pos_as_xyz
'x,y,z'

loop_
_atom_site_label
_atom_site_type_symbol
_atom_site_fract_x
_atom_site_fract_y
_atom_site_fract_z
Zn11	Zn1	0.687620	0.535240	0.937750
Zn21	Zn2	0.625370	0.937750	0.527010
Zn31	Zn3	0.152380	0.527010	0.535240
Zn41	Zn4	0.312380	0.464760	0.062250
Zn51	Zn5	0.374630	0.062250	0.472990
Zn61	Zn6	0.847620	0.472990	0.464760
H11	H1	0.268600	0.670600	0.918100
H21	H2	0.361600	0.823700	0.824300
H31	H3	0.319100	0.732600	0.765900
H41	H4	0.871200	0.759900	0.682200
H51	H5	0.846900	0.814800	0.559200
H61	H6	0.883400	0.901400	0.623300
H71	H7	0.186700	0.918100	0.411300
H81	H8	0.185900	0.824300	0.352000
H91	H9	0.085000	0.765900	0.501500
H101	H10	0.553400	0.682200	0.557900
H111	H11	0.406100	0.559200	0.626000
H121	H12	0.506700	0.623300	0.475300
H131	H13	0.598000	0.411300	0.670600
H141	H14	0.537900	0.352000	0.823700
H151	H15	0.586500	0.501500	0.732600
H161	H16	0.111300	0.557900	0.759900
H171	H17	0.032100	0.626000	0.814800
H181	H18	0.982000	0.475300	0.901400
H191	H19	0.731400	0.329400	0.081900
H201	H20	0.638400	0.176300	0.175700
H211	H21	0.680900	0.267400	0.234100
H221	H22	0.128800	0.240100	0.317800
H231	H23	0.153100	0.185200	0.440800
H241	H24	0.116600	0.098600	0.376700
H251	H25	0.813300	0.081900	0.588700
H261	H26	0.814100	0.175700	0.648000
H271	H27	0.915000	0.234100	0.498500
H281	H28	0.446600	0.317800	0.442100
H291	H29	0.593900	0.440800	0.374000
H301	H30	0.493300	0.376700	0.524700
H311	H31	0.402000	0.588700	0.329400
H321	H32	0.462100	0.648000	0.176300
H331	H33	0.413500	0.498500	0.267400
H341	H34	0.888700	0.442100	0.240100
H351	H35	0.967900	0.374000	0.185200
H361	H36	0.018000	0.524700	0.098600
C11	C1	0.344100	0.739100	0.832100
C21	C2	0.472400	0.724100	0.813200
C31	C3	0.682800	0.756400	0.729700
C41	C4	0.834500	0.813200	0.640700
C51	C5	0.176200	0.832100	0.428800
C61	C6	0.285600	0.813200	0.462700
C71	C7	0.412500	0.729700	0.513900
C81	C8	0.475200	0.640700	0.546100
C91	C9	0.605000	0.428800	0.739100
C101	C10	0.748300	0.462700	0.724100
C111	C11	0.926400	0.513900	0.756400
C121	C12	0.021300	0.546100	0.813200
C131	C13	0.655900	0.260900	0.167900
C141	C14	0.527600	0.275900	0.186800
C151	C15	0.317200	0.243600	0.270300
C161	C16	0.165500	0.186800	0.359300
C171	C17	0.823800	0.167900	0.571200
C181	C18	0.714400	0.186800	0.537300
C191	C19	0.587500	0.270300	0.486100
C201	C20	0.524800	0.359300	0.453900
C211	C21	0.395000	0.571200	0.260900
C221	C22	0.251700	0.537300	0.275900
C231	C23	0.073600	0.486100	0.243600
C241	C24	0.978700	0.453900	0.186800
N11	N1	0.614600	0.649800	0.847200
N21	N2	0.478100	0.629400	0.900900
N31	N3	0.597200	0.805900	0.702700
N41	N4	0.461800	0.847200	0.503000
N51	N5	0.379000	0.900900	0.469700
N61	N6	0.299900	0.702700	0.491400
N71	N7	0.964800	0.503000	0.649800
N81	N8	0.848700	0.469700	0.629400
N91	N9	0.791300	0.491400	0.805900
N101	N10	0.385400	0.350200	0.152800
N111	N11	0.521900	0.370600	0.099100
N121	N12	0.402800	0.194100	0.297300
N131	N13	0.538200	0.152800	0.497000
N141	N14	0.621000	0.099100	0.530300
N151	N15	0.700100	0.297300	0.508600
N161	N16	0.035200	0.497000	0.350200
N171	N17	0.151300	0.530300	0.370600
N181	N18	0.208700	0.508600	0.194100
