data_YUBGUZ_clean_PM
_symmetry_space_group_name_H-M	'P1'
_cell_length_a	9.641600
_cell_length_b	10.973000
_cell_length_c	15.997000
_cell_angle_alpha	109.520000
_cell_angle_beta	91.560000
_cell_angle_gamma	109.610000
_symmetry_Int_Tables_number 1

loop_
_symmetry_equiv_pos_as_xyz
'x,y,z'

loop_
_atom_site_label
_atom_site_type_symbol
_atom_site_fract_x
_atom_site_fract_y
_atom_site_fract_z
U11	U1	0.100970	0.299710	0.379780
U21	U2	0.854950	0.829000	0.996800
O11	O1	0.145000	0.091100	0.285800
O21	O2	0.037900	0.080000	0.403000
C11	C1	0.088600	0.024200	0.333000
C21	C2	0.084500	0.879800	0.312400
C31	C3	0.093800	0.802200	0.226400
H11	H1	0.103300	0.842000	0.182900
C41	C4	0.089700	0.667700	0.202200
C51	C5	0.074200	0.606800	0.267400
H21	H2	0.065000	0.514700	0.252400
C61	C6	0.072800	0.687900	0.355400
C71	C7	0.073500	0.821100	0.379300
H31	H3	0.066800	0.870800	0.437900
C81	C8	0.071000	0.626800	0.430400
O31	O3	0.032300	0.683700	0.499700
O41	O4	0.103700	0.522700	0.413600
N11	N1	0.089000	0.588400	0.114200
H41	H4	0.091200	0.622700	0.072900
H51	H5	0.086400	0.504900	0.100700
O51	O5	0.676800	0.655800	0.047300
O61	O6	0.801700	0.857900	0.149100
C91	C9	0.707600	0.737500	0.128300
C101	C10	0.626500	0.697200	0.198100
C111	C11	0.684600	0.776200	0.284900
H61	H6	0.769700	0.855900	0.299100
C121	C12	0.616000	0.738000	0.354800
C131	C13	0.487400	0.620200	0.330800
H71	H7	0.439200	0.594400	0.375200
C141	C14	0.429800	0.539800	0.240400
C151	C15	0.500000	0.578600	0.174400
H81	H8	0.462200	0.525200	0.114200
C161	C16	0.290100	0.411300	0.216000
O71	O7	0.224500	0.360500	0.138900
O81	O8	0.243700	0.367900	0.277000
N21	N2	0.678400	0.816800	0.442800
H91	H9	0.637800	0.793600	0.485100
H101	H10	0.758300	0.889400	0.455600
O91	O9	0.002300	0.943900	0.913600
H111	H11	0.047100	0.910500	0.878100
H121	H12	0.950200	0.943600	0.873700
U31	U3	0.899030	0.700290	0.620220
U41	U4	0.145050	0.171000	0.003200
O101	O10	0.855000	0.908900	0.714200
O111	O11	0.962100	0.920000	0.597000
C171	C17	0.911400	0.975800	0.667000
C181	C18	0.915500	0.120200	0.687600
C191	C19	0.906200	0.197800	0.773600
H131	H13	0.896700	0.158000	0.817100
C201	C20	0.910300	0.332300	0.797800
C211	C21	0.925800	0.393200	0.732600
H141	H14	0.935000	0.485300	0.747600
C221	C22	0.927200	0.312100	0.644600
C231	C23	0.926500	0.178900	0.620700
H151	H15	0.933200	0.129200	0.562100
C241	C24	0.929000	0.373200	0.569600
O121	O12	0.967700	0.316300	0.500300
O131	O13	0.896300	0.477300	0.586400
N31	N3	0.911000	0.411600	0.885800
H161	H16	0.908800	0.377300	0.927100
H171	H17	0.913600	0.495100	0.899300
O141	O14	0.323200	0.344200	0.952700
O151	O15	0.198300	0.142100	0.850900
C251	C25	0.292400	0.262500	0.871700
C261	C26	0.373500	0.302800	0.801900
C271	C27	0.315400	0.223800	0.715100
H181	H18	0.230300	0.144100	0.700900
C281	C28	0.384000	0.262000	0.645200
C291	C29	0.512600	0.379800	0.669200
H191	H19	0.560800	0.405600	0.624800
C301	C30	0.570200	0.460200	0.759600
C311	C31	0.500000	0.421400	0.825600
H201	H20	0.537800	0.474800	0.885800
C321	C32	0.709900	0.588700	0.784000
O161	O16	0.775500	0.639500	0.861100
O171	O17	0.756300	0.632100	0.723000
N41	N4	0.321600	0.183200	0.557200
H211	H21	0.362200	0.206400	0.514900
H221	H22	0.241700	0.110600	0.544400
O181	O18	0.997700	0.056100	0.086400
H231	H23	0.952900	0.089500	0.121900
H241	H24	0.049800	0.056400	0.126300
