data_YUBQET_clean_PM
_symmetry_space_group_name_H-M	'P1'
_cell_length_a	11.002000
_cell_length_b	22.154700
_cell_length_c	16.995700
_cell_angle_alpha	90.000000
_cell_angle_beta	100.697000
_cell_angle_gamma	90.000000
_symmetry_Int_Tables_number 1

loop_
_symmetry_equiv_pos_as_xyz
'x,y,z'

loop_
_atom_site_label
_atom_site_type_symbol
_atom_site_fract_x
_atom_site_fract_y
_atom_site_fract_z
Co11	Co1	0.144360	0.557400	0.530590
O11	O1	0.000720	0.590900	0.452460
O21	O2	0.214000	0.853080	0.060170
O31	O3	0.326400	0.928570	0.115760
O41	O4	0.837400	0.533150	0.460790
N11	N1	0.244200	0.551540	0.433410
N21	N2	0.052900	0.555360	0.632220
N31	N3	0.441100	0.562010	0.182180
H11	H1	0.382800	0.586900	0.163600
N41	N4	0.560300	0.497480	0.257440
N51	N5	0.611800	0.504430	0.191300
C11	C1	0.399900	0.828870	0.149200
N61	N6	0.834500	0.496630	0.939900
N71	N7	0.781100	0.565140	0.848440
H21	H2	0.744200	0.594500	0.820600
C21	C2	0.309200	0.872510	0.106700
C31	C3	0.411000	0.504140	0.383000
H31	H3	0.476400	0.476900	0.391100
C41	C4	0.099700	0.519420	0.693900
H41	H4	0.173400	0.499300	0.692100
N81	N8	0.913200	0.489140	0.887300
C51	C5	0.458300	0.532980	0.250500
C61	C6	0.383500	0.538100	0.313100
C71	C7	0.948100	0.584420	0.637400
H51	H5	0.913500	0.609700	0.595500
C81	C8	0.888700	0.578780	0.701500
H61	H6	0.816600	0.600300	0.702900
C91	C9	0.285100	0.578120	0.304900
H71	H7	0.263900	0.601000	0.258500
C101	C10	0.536000	0.543760	0.147700
N91	N9	0.479900	0.624700	0.952500
C111	C11	0.337600	0.512390	0.440300
H81	H8	0.354700	0.489100	0.486500
C121	C12	0.648400	0.542300	0.032800
H91	H9	0.703500	0.513800	0.059100
C131	C13	0.218700	0.583840	0.366000
H101	H10	0.153700	0.611300	0.359900
C141	C14	0.778100	0.706890	0.295600
H111	H11	0.812400	0.736800	0.268200
C151	C15	0.887700	0.578610	0.436700
C161	C16	0.806700	0.622260	0.383800
C171	C17	0.650300	0.702630	0.286400
C181	C18	0.566000	0.746420	0.236700
C191	C19	0.937600	0.540660	0.764200
C201	C20	0.855300	0.667800	0.344300
H121	H12	0.940600	0.672200	0.350500
C211	C21	0.596000	0.806760	0.235700
H131	H13	0.671400	0.820200	0.264400
C221	C22	0.045700	0.510490	0.759400
H141	H14	0.081400	0.484400	0.800100
C231	C23	0.659800	0.562300	0.957700
C241	C24	0.603800	0.657600	0.326200
H151	H15	0.518400	0.654000	0.321000
C251	C25	0.756500	0.542200	0.915700
C261	C26	0.875900	0.532560	0.833800
C271	C27	0.514100	0.847830	0.191900
H161	H16	0.536000	0.888400	0.191100
C281	C28	0.555500	0.564300	0.068800
C291	C29	0.372300	0.767410	0.149100
H171	H17	0.297900	0.753600	0.119400
C301	C30	0.678700	0.617100	0.374100
H181	H18	0.643800	0.586400	0.399800
C311	C31	0.572100	0.602800	0.921300
H191	H19	0.578300	0.615800	0.870200
C321	C32	0.452800	0.727040	0.192100
H201	H20	0.432000	0.686300	0.191600
C331	C33	0.474100	0.604400	0.026100
H211	H21	0.410000	0.618500	0.049900
Co21	Co2	0.855640	0.057400	0.969410
O51	O5	0.999280	0.090900	0.047540
O61	O6	0.786000	0.353080	0.439830
O71	O7	0.673600	0.428570	0.384240
O81	O8	0.162600	0.033150	0.039210
N101	N10	0.755800	0.051540	0.066590
N111	N11	0.947100	0.055360	0.867780
N121	N12	0.558900	0.062010	0.317820
H221	H22	0.617200	0.086900	0.336400
N131	N13	0.439700	0.997480	0.242560
N141	N14	0.388200	0.004430	0.308700
C341	C34	0.600100	0.328870	0.350800
N151	N15	0.165500	0.996630	0.560100
N161	N16	0.218900	0.065140	0.651560
H231	H23	0.255800	0.094500	0.679400
C351	C35	0.690800	0.372510	0.393300
C361	C36	0.589000	0.004140	0.117000
H241	H24	0.523600	0.976900	0.108900
C371	C37	0.900300	0.019420	0.806100
H251	H25	0.826600	0.999300	0.807900
N171	N17	0.086800	0.989140	0.612700
C381	C38	0.541700	0.032980	0.249500
C391	C39	0.616500	0.038100	0.186900
C401	C40	0.051900	0.084420	0.862600
H261	H26	0.086500	0.109700	0.904500
C411	C41	0.111300	0.078780	0.798500
H271	H27	0.183400	0.100300	0.797100
C421	C42	0.714900	0.078120	0.195100
H281	H28	0.736100	0.101000	0.241500
C431	C43	0.464000	0.043760	0.352300
N181	N18	0.520100	0.124700	0.547500
C441	C44	0.662400	0.012390	0.059700
H291	H29	0.645300	0.989100	0.013500
C451	C45	0.351600	0.042300	0.467200
H301	H30	0.296500	0.013800	0.440900
C461	C46	0.781300	0.083840	0.134000
H311	H31	0.846300	0.111300	0.140100
C471	C47	0.221900	0.206890	0.204400
H321	H32	0.187600	0.236800	0.231800
C481	C48	0.112300	0.078610	0.063300
C491	C49	0.193300	0.122260	0.116200
C501	C50	0.349700	0.202630	0.213600
C511	C51	0.434000	0.246420	0.263300
C521	C52	0.062400	0.040660	0.735800
C531	C53	0.144700	0.167800	0.155700
H331	H33	0.059400	0.172200	0.149500
C541	C54	0.404000	0.306760	0.264300
H341	H34	0.328600	0.320200	0.235600
C551	C55	0.954300	0.010490	0.740600
H351	H35	0.918600	0.984400	0.699900
C561	C56	0.340200	0.062300	0.542300
C571	C57	0.396200	0.157600	0.173800
H361	H36	0.481600	0.154000	0.179000
C581	C58	0.243500	0.042200	0.584300
C591	C59	0.124100	0.032560	0.666200
C601	C60	0.485900	0.347830	0.308100
H371	H37	0.464000	0.388400	0.308900
C611	C61	0.444500	0.064300	0.431200
C621	C62	0.627700	0.267410	0.350900
H381	H38	0.702100	0.253600	0.380600
C631	C63	0.321300	0.117100	0.125900
H391	H39	0.356200	0.086400	0.100200
C641	C64	0.427900	0.102800	0.578700
H401	H40	0.421700	0.115800	0.629800
C651	C65	0.547200	0.227040	0.307900
H411	H41	0.568000	0.186300	0.308400
C661	C66	0.525900	0.104400	0.473900
H421	H42	0.590000	0.118500	0.450100
Co31	Co3	0.855640	0.442600	0.469410
O91	O9	0.999280	0.409100	0.547540
O101	O10	0.786000	0.146920	0.939830
O111	O11	0.673600	0.071430	0.884240
O121	O12	0.162600	0.466850	0.539210
N191	N19	0.755800	0.448460	0.566590
N201	N20	0.947100	0.444640	0.367780
N211	N21	0.558900	0.437990	0.817820
H431	H43	0.617200	0.413100	0.836400
N221	N22	0.439700	0.502520	0.742560
N231	N23	0.388200	0.495570	0.808700
C671	C67	0.600100	0.171130	0.850800
N241	N24	0.165500	0.503370	0.060100
N251	N25	0.218900	0.434860	0.151560
H441	H44	0.255800	0.405500	0.179400
C681	C68	0.690800	0.127490	0.893300
C691	C69	0.589000	0.495860	0.617000
H451	H45	0.523600	0.523100	0.608900
C701	C70	0.900300	0.480580	0.306100
H461	H46	0.826600	0.500700	0.307900
N261	N26	0.086800	0.510860	0.112700
C711	C71	0.541700	0.467020	0.749500
C721	C72	0.616500	0.461900	0.686900
C731	C73	0.051900	0.415580	0.362600
H471	H47	0.086500	0.390300	0.404500
C741	C74	0.111300	0.421220	0.298500
H481	H48	0.183400	0.399700	0.297100
C751	C75	0.714900	0.421880	0.695100
H491	H49	0.736100	0.399000	0.741500
C761	C76	0.464000	0.456240	0.852300
N271	N27	0.520100	0.375300	0.047500
C771	C77	0.662400	0.487610	0.559700
H501	H50	0.645300	0.510900	0.513500
C781	C78	0.351600	0.457700	0.967200
H511	H51	0.296500	0.486200	0.940900
C791	C79	0.781300	0.416160	0.634000
H521	H52	0.846300	0.388700	0.640100
C801	C80	0.221900	0.293110	0.704400
H531	H53	0.187600	0.263200	0.731800
C811	C81	0.112300	0.421390	0.563300
C821	C82	0.193300	0.377740	0.616200
C831	C83	0.349700	0.297370	0.713600
C841	C84	0.434000	0.253580	0.763300
C851	C85	0.062400	0.459340	0.235800
C861	C86	0.144700	0.332200	0.655700
H541	H54	0.059400	0.327800	0.649500
C871	C87	0.404000	0.193240	0.764300
H551	H55	0.328600	0.179800	0.735600
C881	C88	0.954300	0.489510	0.240600
H561	H56	0.918600	0.515600	0.199900
C891	C89	0.340200	0.437700	0.042300
C901	C90	0.396200	0.342400	0.673800
H571	H57	0.481600	0.346000	0.679000
C911	C91	0.243500	0.457800	0.084300
C921	C92	0.124100	0.467440	0.166200
C931	C93	0.485900	0.152170	0.808100
H581	H58	0.464000	0.111600	0.808900
C941	C94	0.444500	0.435700	0.931200
C951	C95	0.627700	0.232590	0.850900
H591	H59	0.702100	0.246400	0.880600
C961	C96	0.321300	0.382900	0.625900
H601	H60	0.356200	0.413600	0.600200
C971	C97	0.427900	0.397200	0.078700
H611	H61	0.421700	0.384200	0.129800
C981	C98	0.547200	0.272960	0.807900
H621	H62	0.568000	0.313700	0.808400
C991	C99	0.525900	0.395600	0.973900
H631	H63	0.590000	0.381500	0.950100
Co41	Co4	0.144360	0.942600	0.030590
O131	O13	0.000720	0.909100	0.952460
O141	O14	0.214000	0.646920	0.560170
O151	O15	0.326400	0.571430	0.615760
O161	O16	0.837400	0.966850	0.960790
N281	N28	0.244200	0.948460	0.933410
N291	N29	0.052900	0.944640	0.132220
N301	N30	0.441100	0.937990	0.682180
H641	H64	0.382800	0.913100	0.663600
N311	N31	0.560300	0.002520	0.757440
N321	N32	0.611800	0.995570	0.691300
C1001	C100	0.399900	0.671130	0.649200
N331	N33	0.834500	0.003370	0.439900
N341	N34	0.781100	0.934860	0.348440
H651	H65	0.744200	0.905500	0.320600
C1011	C101	0.309200	0.627490	0.606700
C1021	C102	0.411000	0.995860	0.883000
H661	H66	0.476400	0.023100	0.891100
C1031	C103	0.099700	0.980580	0.193900
H671	H67	0.173400	0.000700	0.192100
N351	N35	0.913200	0.010860	0.387300
C1041	C104	0.458300	0.967020	0.750500
C1051	C105	0.383500	0.961900	0.813100
C1061	C106	0.948100	0.915580	0.137400
H681	H68	0.913500	0.890300	0.095500
C1071	C107	0.888700	0.921220	0.201500
H691	H69	0.816600	0.899700	0.202900
C1081	C108	0.285100	0.921880	0.804900
H701	H70	0.263900	0.899000	0.758500
C1091	C109	0.536000	0.956240	0.647700
N361	N36	0.479900	0.875300	0.452500
C1101	C110	0.337600	0.987610	0.940300
H711	H71	0.354700	0.010900	0.986500
C1111	C111	0.648400	0.957700	0.532800
H721	H72	0.703500	0.986200	0.559100
C1121	C112	0.218700	0.916160	0.866000
H731	H73	0.153700	0.888700	0.859900
C1131	C113	0.778100	0.793110	0.795600
H741	H74	0.812400	0.763200	0.768200
C1141	C114	0.887700	0.921390	0.936700
C1151	C115	0.806700	0.877740	0.883800
C1161	C116	0.650300	0.797370	0.786400
C1171	C117	0.566000	0.753580	0.736700
C1181	C118	0.937600	0.959340	0.264200
C1191	C119	0.855300	0.832200	0.844300
H751	H75	0.940600	0.827800	0.850500
C1201	C120	0.596000	0.693240	0.735700
H761	H76	0.671400	0.679800	0.764400
C1211	C121	0.045700	0.989510	0.259400
H771	H77	0.081400	0.015600	0.300100
C1221	C122	0.659800	0.937700	0.457700
C1231	C123	0.603800	0.842400	0.826200
H781	H78	0.518400	0.846000	0.821000
C1241	C124	0.756500	0.957800	0.415700
C1251	C125	0.875900	0.967440	0.333800
C1261	C126	0.514100	0.652170	0.691900
H791	H79	0.536000	0.611600	0.691100
C1271	C127	0.555500	0.935700	0.568800
C1281	C128	0.372300	0.732590	0.649100
H801	H80	0.297900	0.746400	0.619400
C1291	C129	0.678700	0.882900	0.874100
H811	H81	0.643800	0.913600	0.899800
C1301	C130	0.572100	0.897200	0.421300
H821	H82	0.578300	0.884200	0.370200
C1311	C131	0.452800	0.772960	0.692100
H831	H83	0.432000	0.813700	0.691600
C1321	C132	0.474100	0.895600	0.526100
H841	H84	0.410000	0.881500	0.549900
