data_YUCNEQ_clean_PM
_symmetry_space_group_name_H-M	'P1'
_cell_length_a	7.020000
_cell_length_b	8.227000
_cell_length_c	8.529200
_cell_angle_alpha	113.308000
_cell_angle_beta	114.301000
_cell_angle_gamma	90.000000
_symmetry_Int_Tables_number 1

loop_
_symmetry_equiv_pos_as_xyz
'x,y,z'

loop_
_atom_site_label
_atom_site_type_symbol
_atom_site_fract_x
_atom_site_fract_y
_atom_site_fract_z
Co11	Co1	0.000000	0.500000	0.500000
Co21	Co2	0.500000	0.000000	0.500000
H11	H1	0.401300	0.941000	0.084600
H21	H2	0.316700	0.559000	0.915400
H31	H3	0.598700	0.059000	0.915400
H41	H4	0.683300	0.441000	0.084600
C11	C1	0.657340	0.151330	0.272300
C21	C2	0.499660	0.009820	0.081320
C31	C3	0.385040	0.348670	0.727700
C41	C4	0.418340	0.490180	0.918680
C51	C5	0.342660	0.848670	0.727700
C61	C6	0.500340	0.990180	0.918680
C71	C7	0.614960	0.651330	0.272300
C81	C8	0.581660	0.509820	0.081320
O11	O1	0.793440	0.256400	0.278740
O21	O2	0.644200	0.159540	0.419780
O31	O3	0.514700	0.243600	0.721260
O41	O4	0.224420	0.340460	0.580220
O51	O5	0.206560	0.743600	0.721260
O61	O6	0.355800	0.840460	0.580220
O71	O7	0.485300	0.756400	0.278740
O81	O8	0.775580	0.659540	0.419780
