data_YUCZOM_clean_PM
_symmetry_space_group_name_H-M	'P1'
_cell_length_a	8.125600
_cell_length_b	10.502100
_cell_length_c	11.381700
_cell_angle_alpha	62.525100
_cell_angle_beta	84.329300
_cell_angle_gamma	77.633000
_symmetry_Int_Tables_number 1

loop_
_symmetry_equiv_pos_as_xyz
'x,y,z'

loop_
_atom_site_label
_atom_site_type_symbol
_atom_site_fract_x
_atom_site_fract_y
_atom_site_fract_z
Fe11	Fe1	0.357980	0.244410	0.507800
Fe21	Fe2	0.857980	0.752210	0.492200
H11	H1	0.572700	0.949900	0.542600
H21	H2	0.275500	0.936900	0.631600
H31	H3	0.269400	0.733800	0.829800
H41	H4	0.452500	0.931400	0.001400
H51	H5	0.455500	0.128000	0.797800
H61	H6	0.291000	0.543800	0.011000
H71	H7	0.290400	0.347900	0.215200
H81	H8	0.406800	0.767700	0.186400
H91	H9	0.406200	0.563600	0.384600
H101	H10	0.072700	0.492500	0.457400
H111	H11	0.775500	0.568500	0.368400
H121	H12	0.769400	0.563600	0.170200
H131	H13	0.952500	0.932800	0.998600
H141	H14	0.955500	0.925800	0.202200
H151	H15	0.791000	0.554800	0.989000
H161	H16	0.790400	0.563100	0.784800
H171	H17	0.906800	0.954100	0.813600
H181	H18	0.906200	0.948200	0.615400
C11	C1	0.595100	0.012160	0.455280
C21	C2	0.311300	0.936070	0.707060
C31	C3	0.306700	0.813150	0.826500
C41	C4	0.357600	0.808260	0.941280
C51	C5	0.415000	0.929670	0.927660
C61	C6	0.416300	0.047960	0.804480
C71	C7	0.352100	0.680110	0.072780
C81	C8	0.315400	0.550830	0.085740
C91	C9	0.315300	0.433130	0.209140
C101	C10	0.384300	0.683200	0.189000
C111	C11	0.382600	0.559780	0.308040
C121	C12	0.095100	0.467440	0.544720
C131	C13	0.811300	0.643130	0.292940
C141	C14	0.806700	0.639650	0.173500
C151	C15	0.857600	0.749540	0.058720
C161	C16	0.915000	0.857330	0.072340
C171	C17	0.916300	0.852440	0.195520
C181	C18	0.852100	0.752890	0.927220
C191	C19	0.815400	0.636570	0.914260
C201	C20	0.815300	0.642270	0.790860
C211	C21	0.884300	0.872200	0.811000
C221	C22	0.882600	0.867820	0.691960
N11	N1	0.349100	0.435360	0.320480
N21	N2	0.364000	0.053470	0.694060
N31	N3	0.849100	0.755840	0.679520
N41	N4	0.864000	0.747530	0.305940
O11	O1	0.507700	0.137790	0.405420
O21	O2	0.709800	0.963220	0.397760
O31	O3	0.007700	0.543210	0.594580
O41	O4	0.209800	0.360980	0.602240
