data_YUDFOU_clean_PM
_symmetry_space_group_name_H-M	'P1'
_cell_length_a	25.466000
_cell_length_b	14.961000
_cell_length_c	26.140000
_cell_angle_alpha	90.000000
_cell_angle_beta	94.842000
_cell_angle_gamma	90.000000
_symmetry_Int_Tables_number 1

loop_
_symmetry_equiv_pos_as_xyz
'x,y,z'

loop_
_atom_site_label
_atom_site_type_symbol
_atom_site_fract_x
_atom_site_fract_y
_atom_site_fract_z
Gd11	Gd1	0.348240	0.263710	0.006580
C11	C1	0.243200	0.319700	0.920100
C21	C2	0.255500	0.351500	0.868300
C31	C3	0.220100	0.338700	0.825200
H11	H1	0.187800	0.311400	0.828900
C41	C4	0.232200	0.365900	0.777300
C51	C5	0.278000	0.412400	0.768500
C61	C6	0.312100	0.424900	0.812500
C71	C7	0.303900	0.394300	0.861600
H21	H2	0.329400	0.401800	0.888900
C81	C8	0.291800	0.441300	0.715600
C91	C9	0.273800	0.524500	0.694600
C101	C10	0.287300	0.555800	0.648800
H31	H3	0.275400	0.611600	0.637100
C111	C11	0.318200	0.506100	0.619800
C121	C12	0.337100	0.423300	0.638600
H41	H4	0.358900	0.389000	0.619600
C131	C13	0.323200	0.393200	0.685500
C141	C14	0.334700	0.538400	0.567900
C151	C15	0.369100	0.182500	0.887400
C161	C16	0.407800	0.191300	0.845900
C171	C17	0.404200	0.136100	0.804300
H51	H5	0.378000	0.092700	0.801000
C181	C18	0.439300	0.144200	0.766800
C191	C19	0.480100	0.206500	0.769600
C201	C20	0.482500	0.262700	0.813100
C211	C21	0.447000	0.255500	0.850700
H61	H6	0.449700	0.293700	0.878900
N11	N1	0.362700	0.472000	0.808200
N21	N2	0.192700	0.344900	0.734700
N31	N3	0.239800	0.581800	0.724100
N41	N4	0.343200	0.301100	0.700800
N51	N5	0.524800	0.328600	0.822800
N61	N6	0.431700	0.084900	0.722000
O11	O1	0.277800	0.320100	0.955500
O21	O2	0.195800	0.291900	0.923700
O31	O3	0.401000	0.447100	0.837000
O41	O4	0.363300	0.533600	0.778100
O51	O5	0.148600	0.320700	0.743900
O61	O6	0.206500	0.345400	0.690100
O71	O7	0.346300	0.287500	0.746700
O81	O8	0.356300	0.250800	0.668200
O91	O9	0.204600	0.546200	0.744500
O101	O10	0.251300	0.662400	0.725500
O111	O11	0.368700	0.492300	0.548600
O121	O12	0.314300	0.608800	0.550600
O131	O13	0.378200	0.230400	0.926000
O141	O14	0.332100	0.129800	0.879000
O151	O15	0.534200	0.356900	0.865200
O161	O16	0.548400	0.352600	0.785900
O171	O17	0.412100	0.012100	0.729800
O181	O18	0.443100	0.111600	0.680200
Gd21	Gd2	0.848240	0.763710	0.006580
C221	C22	0.743200	0.819700	0.920100
C231	C23	0.755500	0.851500	0.868300
C241	C24	0.720100	0.838700	0.825200
H71	H7	0.687800	0.811400	0.828900
C251	C25	0.732200	0.865900	0.777300
C261	C26	0.778000	0.912400	0.768500
C271	C27	0.812100	0.924900	0.812500
C281	C28	0.803900	0.894300	0.861600
H81	H8	0.829400	0.901800	0.888900
C291	C29	0.791800	0.941300	0.715600
C301	C30	0.773800	0.024500	0.694600
C311	C31	0.787300	0.055800	0.648800
H91	H9	0.775400	0.111600	0.637100
C321	C32	0.818200	0.006100	0.619800
C331	C33	0.837100	0.923300	0.638600
H101	H10	0.858900	0.889000	0.619600
C341	C34	0.823200	0.893200	0.685500
C351	C35	0.834700	0.038400	0.567900
C361	C36	0.869100	0.682500	0.887400
C371	C37	0.907800	0.691300	0.845900
C381	C38	0.904200	0.636100	0.804300
H111	H11	0.878000	0.592700	0.801000
C391	C39	0.939300	0.644200	0.766800
C401	C40	0.980100	0.706500	0.769600
C411	C41	0.982500	0.762700	0.813100
C421	C42	0.947000	0.755500	0.850700
H121	H12	0.949700	0.793700	0.878900
N71	N7	0.862700	0.972000	0.808200
N81	N8	0.692700	0.844900	0.734700
N91	N9	0.739800	0.081800	0.724100
N101	N10	0.843200	0.801100	0.700800
N111	N11	0.024800	0.828600	0.822800
N121	N12	0.931700	0.584900	0.722000
O191	O19	0.777800	0.820100	0.955500
O201	O20	0.695800	0.791900	0.923700
O211	O21	0.901000	0.947100	0.837000
O221	O22	0.863300	0.033600	0.778100
O231	O23	0.648600	0.820700	0.743900
O241	O24	0.706500	0.845400	0.690100
O251	O25	0.846300	0.787500	0.746700
O261	O26	0.856300	0.750800	0.668200
O271	O27	0.704600	0.046200	0.744500
O281	O28	0.751300	0.162400	0.725500
O291	O29	0.868700	0.992300	0.548600
O301	O30	0.814300	0.108800	0.550600
O311	O31	0.878200	0.730400	0.926000
O321	O32	0.832100	0.629800	0.879000
O331	O33	0.034200	0.856900	0.865200
O341	O34	0.048400	0.852600	0.785900
O351	O35	0.912100	0.512100	0.729800
O361	O36	0.943100	0.611600	0.680200
Gd31	Gd3	0.651760	0.263710	0.493420
C431	C43	0.756800	0.319700	0.579900
C441	C44	0.744500	0.351500	0.631700
C451	C45	0.779900	0.338700	0.674800
H131	H13	0.812200	0.311400	0.671100
C461	C46	0.767800	0.365900	0.722700
C471	C47	0.722000	0.412400	0.731500
C481	C48	0.687900	0.424900	0.687500
C491	C49	0.696100	0.394300	0.638400
H141	H14	0.670600	0.401800	0.611100
C501	C50	0.708200	0.441300	0.784400
C511	C51	0.726200	0.524500	0.805400
C521	C52	0.712700	0.555800	0.851200
H151	H15	0.724600	0.611600	0.862900
C531	C53	0.681800	0.506100	0.880200
C541	C54	0.662900	0.423300	0.861400
H161	H16	0.641100	0.389000	0.880400
C551	C55	0.676800	0.393200	0.814500
C561	C56	0.665300	0.538400	0.932100
C571	C57	0.630900	0.182500	0.612600
C581	C58	0.592200	0.191300	0.654100
C591	C59	0.595800	0.136100	0.695700
H171	H17	0.622000	0.092700	0.699000
C601	C60	0.560700	0.144200	0.733200
C611	C61	0.519900	0.206500	0.730400
C621	C62	0.517500	0.262700	0.686900
C631	C63	0.553000	0.255500	0.649300
H181	H18	0.550300	0.293700	0.621100
N131	N13	0.637300	0.472000	0.691800
N141	N14	0.807300	0.344900	0.765300
N151	N15	0.760200	0.581800	0.775900
N161	N16	0.656800	0.301100	0.799200
N171	N17	0.475200	0.328600	0.677200
N181	N18	0.568300	0.084900	0.778000
O371	O37	0.722200	0.320100	0.544500
O381	O38	0.804200	0.291900	0.576300
O391	O39	0.599000	0.447100	0.663000
O401	O40	0.636700	0.533600	0.721900
O411	O41	0.851400	0.320700	0.756100
O421	O42	0.793500	0.345400	0.809900
O431	O43	0.653700	0.287500	0.753300
O441	O44	0.643700	0.250800	0.831800
O451	O45	0.795400	0.546200	0.755500
O461	O46	0.748700	0.662400	0.774500
O471	O47	0.631300	0.492300	0.951400
O481	O48	0.685700	0.608800	0.949400
O491	O49	0.621800	0.230400	0.574000
O501	O50	0.667900	0.129800	0.621000
O511	O51	0.465800	0.356900	0.634800
O521	O52	0.451600	0.352600	0.714100
O531	O53	0.587900	0.012100	0.770200
O541	O54	0.556900	0.111600	0.819800
Gd41	Gd4	0.151760	0.763710	0.493420
C641	C64	0.256800	0.819700	0.579900
C651	C65	0.244500	0.851500	0.631700
C661	C66	0.279900	0.838700	0.674800
H191	H19	0.312200	0.811400	0.671100
C671	C67	0.267800	0.865900	0.722700
C681	C68	0.222000	0.912400	0.731500
C691	C69	0.187900	0.924900	0.687500
C701	C70	0.196100	0.894300	0.638400
H201	H20	0.170600	0.901800	0.611100
C711	C71	0.208200	0.941300	0.784400
C721	C72	0.226200	0.024500	0.805400
C731	C73	0.212700	0.055800	0.851200
H211	H21	0.224600	0.111600	0.862900
C741	C74	0.181800	0.006100	0.880200
C751	C75	0.162900	0.923300	0.861400
H221	H22	0.141100	0.889000	0.880400
C761	C76	0.176800	0.893200	0.814500
C771	C77	0.165300	0.038400	0.932100
C781	C78	0.130900	0.682500	0.612600
C791	C79	0.092200	0.691300	0.654100
C801	C80	0.095800	0.636100	0.695700
H231	H23	0.122000	0.592700	0.699000
C811	C81	0.060700	0.644200	0.733200
C821	C82	0.019900	0.706500	0.730400
C831	C83	0.017500	0.762700	0.686900
C841	C84	0.053000	0.755500	0.649300
H241	H24	0.050300	0.793700	0.621100
N191	N19	0.137300	0.972000	0.691800
N201	N20	0.307300	0.844900	0.765300
N211	N21	0.260200	0.081800	0.775900
N221	N22	0.156800	0.801100	0.799200
N231	N23	0.975200	0.828600	0.677200
N241	N24	0.068300	0.584900	0.778000
O551	O55	0.222200	0.820100	0.544500
O561	O56	0.304200	0.791900	0.576300
O571	O57	0.099000	0.947100	0.663000
O581	O58	0.136700	0.033600	0.721900
O591	O59	0.351400	0.820700	0.756100
O601	O60	0.293500	0.845400	0.809900
O611	O61	0.153700	0.787500	0.753300
O621	O62	0.143700	0.750800	0.831800
O631	O63	0.295400	0.046200	0.755500
O641	O64	0.248700	0.162400	0.774500
O651	O65	0.131300	0.992300	0.951400
O661	O66	0.185700	0.108800	0.949400
O671	O67	0.121800	0.730400	0.574000
O681	O68	0.167900	0.629800	0.621000
O691	O69	0.965800	0.856900	0.634800
O701	O70	0.951600	0.852600	0.714100
O711	O71	0.087900	0.512100	0.770200
O721	O72	0.056900	0.611600	0.819800
Gd51	Gd5	0.651760	0.736290	0.993420
C851	C85	0.756800	0.680300	0.079900
C861	C86	0.744500	0.648500	0.131700
C871	C87	0.779900	0.661300	0.174800
H251	H25	0.812200	0.688600	0.171100
C881	C88	0.767800	0.634100	0.222700
C891	C89	0.722000	0.587600	0.231500
C901	C90	0.687900	0.575100	0.187500
C911	C91	0.696100	0.605700	0.138400
H261	H26	0.670600	0.598200	0.111100
C921	C92	0.708200	0.558700	0.284400
C931	C93	0.726200	0.475500	0.305400
C941	C94	0.712700	0.444200	0.351200
H271	H27	0.724600	0.388400	0.362900
C951	C95	0.681800	0.493900	0.380200
C961	C96	0.662900	0.576700	0.361400
H281	H28	0.641100	0.611000	0.380400
C971	C97	0.676800	0.606800	0.314500
C981	C98	0.665300	0.461600	0.432100
C991	C99	0.630900	0.817500	0.112600
C1001	C100	0.592200	0.808700	0.154100
C1011	C101	0.595800	0.863900	0.195700
H291	H29	0.622000	0.907300	0.199000
C1021	C102	0.560700	0.855800	0.233200
C1031	C103	0.519900	0.793500	0.230400
C1041	C104	0.517500	0.737300	0.186900
C1051	C105	0.553000	0.744500	0.149300
H301	H30	0.550300	0.706300	0.121100
N251	N25	0.637300	0.528000	0.191800
N261	N26	0.807300	0.655100	0.265300
N271	N27	0.760200	0.418200	0.275900
N281	N28	0.656800	0.698900	0.299200
N291	N29	0.475200	0.671400	0.177200
N301	N30	0.568300	0.915100	0.278000
O731	O73	0.722200	0.679900	0.044500
O741	O74	0.804200	0.708100	0.076300
O751	O75	0.599000	0.552900	0.163000
O761	O76	0.636700	0.466400	0.221900
O771	O77	0.851400	0.679300	0.256100
O781	O78	0.793500	0.654600	0.309900
O791	O79	0.653700	0.712500	0.253300
O801	O80	0.643700	0.749200	0.331800
O811	O81	0.795400	0.453800	0.255500
O821	O82	0.748700	0.337600	0.274500
O831	O83	0.631300	0.507700	0.451400
O841	O84	0.685700	0.391200	0.449400
O851	O85	0.621800	0.769600	0.074000
O861	O86	0.667900	0.870200	0.121000
O871	O87	0.465800	0.643100	0.134800
O881	O88	0.451600	0.647400	0.214100
O891	O89	0.587900	0.987900	0.270200
O901	O90	0.556900	0.888400	0.319800
Gd61	Gd6	0.151760	0.236290	0.993420
C1061	C106	0.256800	0.180300	0.079900
C1071	C107	0.244500	0.148500	0.131700
C1081	C108	0.279900	0.161300	0.174800
H311	H31	0.312200	0.188600	0.171100
C1091	C109	0.267800	0.134100	0.222700
C1101	C110	0.222000	0.087600	0.231500
C1111	C111	0.187900	0.075100	0.187500
C1121	C112	0.196100	0.105700	0.138400
H321	H32	0.170600	0.098200	0.111100
C1131	C113	0.208200	0.058700	0.284400
C1141	C114	0.226200	0.975500	0.305400
C1151	C115	0.212700	0.944200	0.351200
H331	H33	0.224600	0.888400	0.362900
C1161	C116	0.181800	0.993900	0.380200
C1171	C117	0.162900	0.076700	0.361400
H341	H34	0.141100	0.111000	0.380400
C1181	C118	0.176800	0.106800	0.314500
C1191	C119	0.165300	0.961600	0.432100
C1201	C120	0.130900	0.317500	0.112600
C1211	C121	0.092200	0.308700	0.154100
C1221	C122	0.095800	0.363900	0.195700
H351	H35	0.122000	0.407300	0.199000
C1231	C123	0.060700	0.355800	0.233200
C1241	C124	0.019900	0.293500	0.230400
C1251	C125	0.017500	0.237300	0.186900
C1261	C126	0.053000	0.244500	0.149300
H361	H36	0.050300	0.206300	0.121100
N311	N31	0.137300	0.028000	0.191800
N321	N32	0.307300	0.155100	0.265300
N331	N33	0.260200	0.918200	0.275900
N341	N34	0.156800	0.198900	0.299200
N351	N35	0.975200	0.171400	0.177200
N361	N36	0.068300	0.415100	0.278000
O911	O91	0.222200	0.179900	0.044500
O921	O92	0.304200	0.208100	0.076300
O931	O93	0.099000	0.052900	0.163000
O941	O94	0.136700	0.966400	0.221900
O951	O95	0.351400	0.179300	0.256100
O961	O96	0.293500	0.154600	0.309900
O971	O97	0.153700	0.212500	0.253300
O981	O98	0.143700	0.249200	0.331800
O991	O99	0.295400	0.953800	0.255500
O1001	O100	0.248700	0.837600	0.274500
O1011	O101	0.131300	0.007700	0.451400
O1021	O102	0.185700	0.891200	0.449400
O1031	O103	0.121800	0.269600	0.074000
O1041	O104	0.167900	0.370200	0.121000
O1051	O105	0.965800	0.143100	0.134800
O1061	O106	0.951600	0.147400	0.214100
O1071	O107	0.087900	0.487900	0.270200
O1081	O108	0.056900	0.388400	0.319800
Gd71	Gd7	0.348240	0.736290	0.506580
C1271	C127	0.243200	0.680300	0.420100
C1281	C128	0.255500	0.648500	0.368300
C1291	C129	0.220100	0.661300	0.325200
H371	H37	0.187800	0.688600	0.328900
C1301	C130	0.232200	0.634100	0.277300
C1311	C131	0.278000	0.587600	0.268500
C1321	C132	0.312100	0.575100	0.312500
C1331	C133	0.303900	0.605700	0.361600
H381	H38	0.329400	0.598200	0.388900
C1341	C134	0.291800	0.558700	0.215600
C1351	C135	0.273800	0.475500	0.194600
C1361	C136	0.287300	0.444200	0.148800
H391	H39	0.275400	0.388400	0.137100
C1371	C137	0.318200	0.493900	0.119800
C1381	C138	0.337100	0.576700	0.138600
H401	H40	0.358900	0.611000	0.119600
C1391	C139	0.323200	0.606800	0.185500
C1401	C140	0.334700	0.461600	0.067900
C1411	C141	0.369100	0.817500	0.387400
C1421	C142	0.407800	0.808700	0.345900
C1431	C143	0.404200	0.863900	0.304300
H411	H41	0.378000	0.907300	0.301000
C1441	C144	0.439300	0.855800	0.266800
C1451	C145	0.480100	0.793500	0.269600
C1461	C146	0.482500	0.737300	0.313100
C1471	C147	0.447000	0.744500	0.350700
H421	H42	0.449700	0.706300	0.378900
N371	N37	0.362700	0.528000	0.308200
N381	N38	0.192700	0.655100	0.234700
N391	N39	0.239800	0.418200	0.224100
N401	N40	0.343200	0.698900	0.200800
N411	N41	0.524800	0.671400	0.322800
N421	N42	0.431700	0.915100	0.222000
O1091	O109	0.277800	0.679900	0.455500
O1101	O110	0.195800	0.708100	0.423700
O1111	O111	0.401000	0.552900	0.337000
O1121	O112	0.363300	0.466400	0.278100
O1131	O113	0.148600	0.679300	0.243900
O1141	O114	0.206500	0.654600	0.190100
O1151	O115	0.346300	0.712500	0.246700
O1161	O116	0.356300	0.749200	0.168200
O1171	O117	0.204600	0.453800	0.244500
O1181	O118	0.251300	0.337600	0.225500
O1191	O119	0.368700	0.507700	0.048600
O1201	O120	0.314300	0.391200	0.050600
O1211	O121	0.378200	0.769600	0.426000
O1221	O122	0.332100	0.870200	0.379000
O1231	O123	0.534200	0.643100	0.365200
O1241	O124	0.548400	0.647400	0.285900
O1251	O125	0.412100	0.987900	0.229800
O1261	O126	0.443100	0.888400	0.180200
Gd81	Gd8	0.848240	0.236290	0.506580
C1481	C148	0.743200	0.180300	0.420100
C1491	C149	0.755500	0.148500	0.368300
C1501	C150	0.720100	0.161300	0.325200
H431	H43	0.687800	0.188600	0.328900
C1511	C151	0.732200	0.134100	0.277300
C1521	C152	0.778000	0.087600	0.268500
C1531	C153	0.812100	0.075100	0.312500
C1541	C154	0.803900	0.105700	0.361600
H441	H44	0.829400	0.098200	0.388900
C1551	C155	0.791800	0.058700	0.215600
C1561	C156	0.773800	0.975500	0.194600
C1571	C157	0.787300	0.944200	0.148800
H451	H45	0.775400	0.888400	0.137100
C1581	C158	0.818200	0.993900	0.119800
C1591	C159	0.837100	0.076700	0.138600
H461	H46	0.858900	0.111000	0.119600
C1601	C160	0.823200	0.106800	0.185500
C1611	C161	0.834700	0.961600	0.067900
C1621	C162	0.869100	0.317500	0.387400
C1631	C163	0.907800	0.308700	0.345900
C1641	C164	0.904200	0.363900	0.304300
H471	H47	0.878000	0.407300	0.301000
C1651	C165	0.939300	0.355800	0.266800
C1661	C166	0.980100	0.293500	0.269600
C1671	C167	0.982500	0.237300	0.313100
C1681	C168	0.947000	0.244500	0.350700
H481	H48	0.949700	0.206300	0.378900
N431	N43	0.862700	0.028000	0.308200
N441	N44	0.692700	0.155100	0.234700
N451	N45	0.739800	0.918200	0.224100
N461	N46	0.843200	0.198900	0.200800
N471	N47	0.024800	0.171400	0.322800
N481	N48	0.931700	0.415100	0.222000
O1271	O127	0.777800	0.179900	0.455500
O1281	O128	0.695800	0.208100	0.423700
O1291	O129	0.901000	0.052900	0.337000
O1301	O130	0.863300	0.966400	0.278100
O1311	O131	0.648600	0.179300	0.243900
O1321	O132	0.706500	0.154600	0.190100
O1331	O133	0.846300	0.212500	0.246700
O1341	O134	0.856300	0.249200	0.168200
O1351	O135	0.704600	0.953800	0.244500
O1361	O136	0.751300	0.837600	0.225500
O1371	O137	0.868700	0.007700	0.048600
O1381	O138	0.814300	0.891200	0.050600
O1391	O139	0.878200	0.269600	0.426000
O1401	O140	0.832100	0.370200	0.379000
O1411	O141	0.034200	0.143100	0.365200
O1421	O142	0.048400	0.147400	0.285900
O1431	O143	0.912100	0.487900	0.229800
O1441	O144	0.943100	0.388400	0.180200
