data_YUDFEK_clean_PM
_symmetry_space_group_name_H-M	'P1'
_cell_length_a	13.137000
_cell_length_b	30.227000
_cell_length_c	23.326000
_cell_angle_alpha	90.000000
_cell_angle_beta	102.075000
_cell_angle_gamma	90.000000
_symmetry_Int_Tables_number 1

loop_
_symmetry_equiv_pos_as_xyz
'x,y,z'

loop_
_atom_site_label
_atom_site_type_symbol
_atom_site_fract_x
_atom_site_fract_y
_atom_site_fract_z
Gd11	Gd1	0.649700	0.270180	0.771430
Gd21	Gd2	0.349250	0.245130	0.699150
C11	C1	0.508900	0.244410	0.628900
C21	C2	0.589100	0.242370	0.590800
C31	C3	0.673900	0.270510	0.600800
H11	H1	0.683100	0.290800	0.631500
C41	C4	0.744500	0.268070	0.564600
C51	C5	0.734700	0.238830	0.517700
C61	C6	0.646900	0.211850	0.509100
C71	C7	0.574600	0.213170	0.544200
H21	H2	0.516800	0.194600	0.536600
C81	C8	0.805300	0.239090	0.474900
C91	C9	0.902100	0.217820	0.484500
C101	C10	0.965000	0.217430	0.444000
H31	H3	0.030600	0.204500	0.453000
C111	C11	0.928800	0.236560	0.389700
C121	C12	0.833300	0.257600	0.377100
H41	H4	0.808700	0.270300	0.340600
C131	C13	0.774900	0.259280	0.420200
C141	C14	0.996100	0.234530	0.344900
C151	C15	0.457400	0.347410	0.726800
C161	C16	0.433000	0.396600	0.728900
C171	C17	0.506600	0.425590	0.758300
H51	H5	0.573200	0.415500	0.774800
C181	C18	0.481800	0.469780	0.763200
C191	C19	0.384100	0.487370	0.739600
C201	C20	0.312100	0.456490	0.710000
C211	C21	0.335200	0.412690	0.704400
H61	H6	0.284700	0.393700	0.684000
C221	C22	0.541500	0.169810	0.753200
C231	C23	0.565400	0.120800	0.756900
C241	C24	0.490600	0.090560	0.731700
H71	H7	0.424000	0.100000	0.714100
C251	C25	0.516000	0.045830	0.733100
C261	C26	0.613800	0.029370	0.756800
C271	C27	0.688700	0.061590	0.780700
C281	C28	0.664500	0.105840	0.781700
H81	H8	0.715100	0.125900	0.799200
C291	C29	0.640500	0.981650	0.751100
C301	C30	0.659700	0.965580	0.698600
C311	C31	0.685900	0.922130	0.690500
H91	H9	0.698000	0.912900	0.654400
C321	C32	0.694200	0.892380	0.736600
C331	C33	0.672000	0.906510	0.789400
H101	H10	0.675500	0.886700	0.820300
C341	C34	0.644700	0.950190	0.795700
C351	C35	0.730600	0.845960	0.729200
C361	C36	0.258100	0.666850	0.785100
C371	C37	0.297900	0.621440	0.774800
C381	C38	0.315900	0.610600	0.720200
H111	H11	0.306800	0.631700	0.690600
C391	C39	0.347500	0.568260	0.709700
C401	C40	0.356300	0.534080	0.751300
C411	C41	0.341100	0.547520	0.805700
C421	C42	0.314900	0.590210	0.818700
H121	H12	0.308800	0.597600	0.856500
N11	N1	0.831400	0.299530	0.575900
N21	N2	0.627300	0.181790	0.458600
N31	N3	0.941100	0.194190	0.539800
N41	N4	0.676400	0.284090	0.405600
N51	N5	0.563000	0.497910	0.798400
N61	N6	0.205900	0.470530	0.682600
N71	N7	0.432900	0.015930	0.703000
N81	N8	0.798000	0.049060	0.801200
N91	N9	0.654500	0.995270	0.647700
N101	N10	0.619300	0.962670	0.851900
N111	N11	0.354600	0.515250	0.854900
N121	N12	0.371100	0.560350	0.651900
O11	O1	0.419700	0.230560	0.609160
O21	O2	0.536000	0.260980	0.679690
O31	O3	0.814700	0.336280	0.591800
O41	O4	0.916600	0.286300	0.570400
O51	O5	0.537500	0.177600	0.432800
O61	O6	0.697900	0.162120	0.444700
O71	O7	0.635000	0.287340	0.354350
O81	O8	0.642900	0.301200	0.445120
O91	O9	0.877500	0.180400	0.566400
O101	O10	0.032600	0.186400	0.554000
O111	O11	0.955000	0.241110	0.291860
O121	O12	0.384400	0.323360	0.701050
O131	O13	0.547300	0.336200	0.751360
O141	O14	0.149900	0.444800	0.653900
O151	O15	0.174200	0.506040	0.694600
O161	O16	0.628000	0.479650	0.836200
O171	O17	0.561200	0.537590	0.789200
O181	O18	0.607800	0.194200	0.784220
O191	O19	0.459100	0.180510	0.718690
O201	O20	0.434500	0.977190	0.718100
O211	O21	0.368000	0.031110	0.663100
O221	O22	0.823100	0.010230	0.797900
O231	O23	0.861100	0.078550	0.818200
O241	O24	0.630400	0.978680	0.599220
O251	O25	0.674100	0.034450	0.656680
O261	O26	0.598300	0.933610	0.883000
O271	O27	0.620100	0.001520	0.864700
O281	O28	0.749900	0.835370	0.680780
O291	O29	0.223900	0.690260	0.741320
O301	O30	0.257100	0.678710	0.836900
O311	O31	0.393500	0.591510	0.624800
O321	O32	0.372800	0.523360	0.634700
O331	O33	0.387900	0.529690	0.903900
O341	O34	0.330100	0.477000	0.843800
O351	O35	0.090500	0.226440	0.362220
O361	O36	0.744400	0.820600	0.773050
Gd31	Gd3	0.850300	0.770180	0.728570
Gd41	Gd4	0.150750	0.745130	0.800850
C431	C43	0.991100	0.744410	0.871100
C441	C44	0.910900	0.742370	0.909200
C451	C45	0.826100	0.770510	0.899200
H131	H13	0.816900	0.790800	0.868500
C461	C46	0.755500	0.768070	0.935400
C471	C47	0.765300	0.738830	0.982300
C481	C48	0.853100	0.711850	0.990900
C491	C49	0.925400	0.713170	0.955800
H141	H14	0.983200	0.694600	0.963400
C501	C50	0.694700	0.739090	0.025100
C511	C51	0.597900	0.717820	0.015500
C521	C52	0.535000	0.717430	0.056000
H151	H15	0.469400	0.704500	0.047000
C531	C53	0.571200	0.736560	0.110300
C541	C54	0.666700	0.757600	0.122900
H161	H16	0.691300	0.770300	0.159400
C551	C55	0.725100	0.759280	0.079800
C561	C56	0.503900	0.734530	0.155100
C571	C57	0.042600	0.847410	0.773200
C581	C58	0.067000	0.896600	0.771100
C591	C59	0.993400	0.925590	0.741700
H171	H17	0.926800	0.915500	0.725200
C601	C60	0.018200	0.969780	0.736800
C611	C61	0.115900	0.987370	0.760400
C621	C62	0.187900	0.956490	0.790000
C631	C63	0.164800	0.912690	0.795600
H181	H18	0.215300	0.893700	0.816000
C641	C64	0.958500	0.669810	0.746800
C651	C65	0.934600	0.620800	0.743100
C661	C66	0.009400	0.590560	0.768300
H191	H19	0.076000	0.600000	0.785900
C671	C67	0.984000	0.545830	0.766900
C681	C68	0.886200	0.529370	0.743200
C691	C69	0.811300	0.561590	0.719300
C701	C70	0.835500	0.605840	0.718300
H201	H20	0.784900	0.625900	0.700800
C711	C71	0.859500	0.481650	0.748900
C721	C72	0.840300	0.465580	0.801400
C731	C73	0.814100	0.422130	0.809500
H211	H21	0.802000	0.412900	0.845600
C741	C74	0.805800	0.392380	0.763400
C751	C75	0.828000	0.406510	0.710600
H221	H22	0.824500	0.386700	0.679700
C761	C76	0.855300	0.450190	0.704300
C771	C77	0.769400	0.345960	0.770800
C781	C78	0.241900	0.166850	0.714900
C791	C79	0.202100	0.121440	0.725200
C801	C80	0.184100	0.110600	0.779800
H231	H23	0.193200	0.131700	0.809400
C811	C81	0.152500	0.068260	0.790300
C821	C82	0.143700	0.034080	0.748700
C831	C83	0.158900	0.047520	0.694300
C841	C84	0.185100	0.090210	0.681300
H241	H24	0.191200	0.097600	0.643500
N131	N13	0.668600	0.799530	0.924100
N141	N14	0.872700	0.681790	0.041400
N151	N15	0.558900	0.694190	0.960200
N161	N16	0.823600	0.784090	0.094400
N171	N17	0.937000	0.997910	0.701600
N181	N18	0.294100	0.970530	0.817400
N191	N19	0.067100	0.515930	0.797000
N201	N20	0.702000	0.549060	0.698800
N211	N21	0.845500	0.495270	0.852300
N221	N22	0.880700	0.462670	0.648100
N231	N23	0.145400	0.015250	0.645100
N241	N24	0.128900	0.060350	0.848100
O371	O37	0.080300	0.730560	0.890840
O381	O38	0.964000	0.760980	0.820310
O391	O39	0.685300	0.836280	0.908200
O401	O40	0.583400	0.786300	0.929600
O411	O41	0.962500	0.677600	0.067200
O421	O42	0.802100	0.662120	0.055300
O431	O43	0.865000	0.787340	0.145650
O441	O44	0.857100	0.801200	0.054880
O451	O45	0.622500	0.680400	0.933600
O461	O46	0.467400	0.686400	0.946000
O471	O47	0.545000	0.741110	0.208140
O481	O48	0.115600	0.823360	0.798950
O491	O49	0.952700	0.836200	0.748640
O501	O50	0.350100	0.944800	0.846100
O511	O51	0.325800	0.006040	0.805400
O521	O52	0.872000	0.979650	0.663800
O531	O53	0.938800	0.037590	0.710800
O541	O54	0.892200	0.694200	0.715780
O551	O55	0.040900	0.680510	0.781310
O561	O56	0.065500	0.477190	0.781900
O571	O57	0.132000	0.531110	0.836900
O581	O58	0.676900	0.510230	0.702100
O591	O59	0.638900	0.578550	0.681800
O601	O60	0.869600	0.478680	0.900780
O611	O61	0.825900	0.534450	0.843320
O621	O62	0.901700	0.433610	0.617000
O631	O63	0.879900	0.501520	0.635300
O641	O64	0.750100	0.335370	0.819220
O651	O65	0.276100	0.190260	0.758680
O661	O66	0.242900	0.178710	0.663100
O671	O67	0.106500	0.091510	0.875200
O681	O68	0.127200	0.023360	0.865300
O691	O69	0.112100	0.029690	0.596100
O701	O70	0.169900	0.977000	0.656200
O711	O71	0.409500	0.726440	0.137780
O721	O72	0.755600	0.320600	0.726950
Gd51	Gd5	0.350300	0.729820	0.228570
Gd61	Gd6	0.650750	0.754870	0.300850
C851	C85	0.491100	0.755590	0.371100
C861	C86	0.410900	0.757630	0.409200
C871	C87	0.326100	0.729490	0.399200
H251	H25	0.316900	0.709200	0.368500
C881	C88	0.255500	0.731930	0.435400
C891	C89	0.265300	0.761170	0.482300
C901	C90	0.353100	0.788150	0.490900
C911	C91	0.425400	0.786830	0.455800
H261	H26	0.483200	0.805400	0.463400
C921	C92	0.194700	0.760910	0.525100
C931	C93	0.097900	0.782180	0.515500
C941	C94	0.035000	0.782570	0.556000
H271	H27	0.969400	0.795500	0.547000
C951	C95	0.071200	0.763440	0.610300
C961	C96	0.166700	0.742400	0.622900
H281	H28	0.191300	0.729700	0.659400
C971	C97	0.225100	0.740720	0.579800
C981	C98	0.003900	0.765470	0.655100
C991	C99	0.542600	0.652590	0.273200
C1001	C100	0.567000	0.603400	0.271100
C1011	C101	0.493400	0.574410	0.241700
H291	H29	0.426800	0.584500	0.225200
C1021	C102	0.518200	0.530220	0.236800
C1031	C103	0.615900	0.512630	0.260400
C1041	C104	0.687900	0.543510	0.290000
C1051	C105	0.664800	0.587310	0.295600
H301	H30	0.715300	0.606300	0.316000
C1061	C106	0.458500	0.830190	0.246800
C1071	C107	0.434600	0.879200	0.243100
C1081	C108	0.509400	0.909440	0.268300
H311	H31	0.576000	0.900000	0.285900
C1091	C109	0.484000	0.954170	0.266900
C1101	C110	0.386200	0.970630	0.243200
C1111	C111	0.311300	0.938410	0.219300
C1121	C112	0.335500	0.894160	0.218300
H321	H32	0.284900	0.874100	0.200800
C1131	C113	0.359500	0.018350	0.248900
C1141	C114	0.340300	0.034420	0.301400
C1151	C115	0.314100	0.077870	0.309500
H331	H33	0.302000	0.087100	0.345600
C1161	C116	0.305800	0.107620	0.263400
C1171	C117	0.328000	0.093490	0.210600
H341	H34	0.324500	0.113300	0.179700
C1181	C118	0.355300	0.049810	0.204300
C1191	C119	0.269400	0.154040	0.270800
C1201	C120	0.741900	0.333150	0.214900
C1211	C121	0.702100	0.378560	0.225200
C1221	C122	0.684100	0.389400	0.279800
H351	H35	0.693200	0.368300	0.309400
C1231	C123	0.652500	0.431740	0.290300
C1241	C124	0.643700	0.465920	0.248700
C1251	C125	0.658900	0.452480	0.194300
C1261	C126	0.685100	0.409790	0.181300
H361	H36	0.691200	0.402400	0.143500
N251	N25	0.168600	0.700470	0.424100
N261	N26	0.372700	0.818210	0.541400
N271	N27	0.058900	0.805810	0.460200
N281	N28	0.323600	0.715910	0.594400
N291	N29	0.437000	0.502090	0.201600
N301	N30	0.794100	0.529470	0.317400
N311	N31	0.567100	0.984070	0.297000
N321	N32	0.202000	0.950940	0.198800
N331	N33	0.345500	0.004730	0.352300
N341	N34	0.380700	0.037330	0.148100
N351	N35	0.645400	0.484750	0.145100
N361	N36	0.628900	0.439650	0.348100
O731	O73	0.580300	0.769440	0.390840
O741	O74	0.464000	0.739020	0.320310
O751	O75	0.185300	0.663720	0.408200
O761	O76	0.083400	0.713700	0.429600
O771	O77	0.462500	0.822400	0.567200
O781	O78	0.302100	0.837880	0.555300
O791	O79	0.365000	0.712660	0.645650
O801	O80	0.357100	0.698800	0.554880
O811	O81	0.122500	0.819600	0.433600
O821	O82	0.967400	0.813600	0.446000
O831	O83	0.045000	0.758890	0.708140
O841	O84	0.615600	0.676640	0.298950
O851	O85	0.452700	0.663800	0.248640
O861	O86	0.850100	0.555200	0.346100
O871	O87	0.825800	0.493960	0.305400
O881	O88	0.372000	0.520350	0.163800
O891	O89	0.438800	0.462410	0.210800
O901	O90	0.392200	0.805800	0.215780
O911	O91	0.540900	0.819490	0.281310
O921	O92	0.565500	0.022810	0.281900
O931	O93	0.632000	0.968890	0.336900
O941	O94	0.176900	0.989770	0.202100
O951	O95	0.138900	0.921450	0.181800
O961	O96	0.369600	0.021320	0.400780
O971	O97	0.325900	0.965550	0.343320
O981	O98	0.401700	0.066390	0.117000
O991	O99	0.379900	0.998480	0.135300
O1001	O100	0.250100	0.164630	0.319220
O1011	O101	0.776100	0.309740	0.258680
O1021	O102	0.742900	0.321290	0.163100
O1031	O103	0.606500	0.408490	0.375200
O1041	O104	0.627200	0.476640	0.365300
O1051	O105	0.612100	0.470310	0.096100
O1061	O106	0.669900	0.523000	0.156200
O1071	O107	0.909500	0.773560	0.637780
O1081	O108	0.255600	0.179400	0.226950
Gd71	Gd7	0.149700	0.229820	0.271430
Gd81	Gd8	0.849250	0.254870	0.199150
C1271	C127	0.008900	0.255590	0.128900
C1281	C128	0.089100	0.257630	0.090800
C1291	C129	0.173900	0.229490	0.100800
H371	H37	0.183100	0.209200	0.131500
C1301	C130	0.244500	0.231930	0.064600
C1311	C131	0.234700	0.261170	0.017700
C1321	C132	0.146900	0.288150	0.009100
C1331	C133	0.074600	0.286830	0.044200
H381	H38	0.016800	0.305400	0.036600
C1341	C134	0.305300	0.260910	0.974900
C1351	C135	0.402100	0.282180	0.984500
C1361	C136	0.465000	0.282570	0.944000
H391	H39	0.530600	0.295500	0.953000
C1371	C137	0.428800	0.263440	0.889700
C1381	C138	0.333300	0.242400	0.877100
H401	H40	0.308700	0.229700	0.840600
C1391	C139	0.274900	0.240720	0.920200
C1401	C140	0.496100	0.265470	0.844900
C1411	C141	0.957400	0.152590	0.226800
C1421	C142	0.933000	0.103400	0.228900
C1431	C143	0.006600	0.074410	0.258300
H411	H41	0.073200	0.084500	0.274800
C1441	C144	0.981800	0.030220	0.263200
C1451	C145	0.884100	0.012630	0.239600
C1461	C146	0.812100	0.043510	0.210000
C1471	C147	0.835200	0.087310	0.204400
H421	H42	0.784700	0.106300	0.184000
C1481	C148	0.041500	0.330190	0.253200
C1491	C149	0.065400	0.379200	0.256900
C1501	C150	0.990600	0.409440	0.231700
H431	H43	0.924000	0.400000	0.214100
C1511	C151	0.016000	0.454170	0.233100
C1521	C152	0.113800	0.470630	0.256800
C1531	C153	0.188700	0.438410	0.280700
C1541	C154	0.164500	0.394160	0.281700
H441	H44	0.215100	0.374100	0.299200
C1551	C155	0.140500	0.518350	0.251100
C1561	C156	0.159700	0.534420	0.198600
C1571	C157	0.185900	0.577870	0.190500
H451	H45	0.198000	0.587100	0.154400
C1581	C158	0.194200	0.607620	0.236600
C1591	C159	0.172000	0.593490	0.289400
H461	H46	0.175500	0.613300	0.320300
C1601	C160	0.144700	0.549810	0.295700
C1611	C161	0.230600	0.654040	0.229200
C1621	C162	0.758100	0.833150	0.285100
C1631	C163	0.797900	0.878560	0.274800
C1641	C164	0.815900	0.889400	0.220200
H471	H47	0.806800	0.868300	0.190600
C1651	C165	0.847500	0.931740	0.209700
C1661	C166	0.856300	0.965920	0.251300
C1671	C167	0.841100	0.952480	0.305700
C1681	C168	0.814900	0.909790	0.318700
H481	H48	0.808800	0.902400	0.356500
N371	N37	0.331400	0.200470	0.075900
N381	N38	0.127300	0.318210	0.958600
N391	N39	0.441100	0.305810	0.039800
N401	N40	0.176400	0.215910	0.905600
N411	N41	0.063000	0.002090	0.298400
N421	N42	0.705900	0.029470	0.182600
N431	N43	0.932900	0.484070	0.203000
N441	N44	0.298000	0.450940	0.301200
N451	N45	0.154500	0.504730	0.147700
N461	N46	0.119300	0.537330	0.351900
N471	N47	0.854600	0.984750	0.354900
N481	N48	0.871100	0.939650	0.151900
O1091	O109	0.919700	0.269440	0.109160
O1101	O110	0.036000	0.239020	0.179690
O1111	O111	0.314700	0.163720	0.091800
O1121	O112	0.416600	0.213700	0.070400
O1131	O113	0.037500	0.322400	0.932800
O1141	O114	0.197900	0.337880	0.944700
O1151	O115	0.135000	0.212660	0.854350
O1161	O116	0.142900	0.198800	0.945120
O1171	O117	0.377500	0.319600	0.066400
O1181	O118	0.532600	0.313600	0.054000
O1191	O119	0.455000	0.258890	0.791860
O1201	O120	0.884400	0.176640	0.201050
O1211	O121	0.047300	0.163800	0.251360
O1221	O122	0.649900	0.055200	0.153900
O1231	O123	0.674200	0.993960	0.194600
O1241	O124	0.128000	0.020350	0.336200
O1251	O125	0.061200	0.962410	0.289200
O1261	O126	0.107800	0.305800	0.284220
O1271	O127	0.959100	0.319490	0.218690
O1281	O128	0.934500	0.522810	0.218100
O1291	O129	0.868000	0.468890	0.163100
O1301	O130	0.323100	0.489770	0.297900
O1311	O131	0.361100	0.421450	0.318200
O1321	O132	0.130400	0.521320	0.099220
O1331	O133	0.174100	0.465550	0.156680
O1341	O134	0.098300	0.566390	0.383000
O1351	O135	0.120100	0.498480	0.364700
O1361	O136	0.249900	0.664630	0.180780
O1371	O137	0.723900	0.809740	0.241320
O1381	O138	0.757100	0.821290	0.336900
O1391	O139	0.893500	0.908490	0.124800
O1401	O140	0.872800	0.976640	0.134700
O1411	O141	0.887900	0.970310	0.403900
O1421	O142	0.830100	0.023000	0.343800
O1431	O143	0.590500	0.273560	0.862220
O1441	O144	0.244400	0.679400	0.273050
