data_YUFLOC_clean_PM
_symmetry_space_group_name_H-M	'P1'
_cell_length_a	11.439000
_cell_length_b	11.966000
_cell_length_c	12.113000
_cell_angle_alpha	101.036000
_cell_angle_beta	106.890000
_cell_angle_gamma	107.950000
_symmetry_Int_Tables_number 1

loop_
_symmetry_equiv_pos_as_xyz
'x,y,z'

loop_
_atom_site_label
_atom_site_type_symbol
_atom_site_fract_x
_atom_site_fract_y
_atom_site_fract_z
Sr11	Sr1	0.284040	0.285920	0.774250
O11	O1	0.922500	0.168000	0.424700
O21	O2	0.070600	0.252700	0.610800
O31	O3	0.868100	0.299200	0.292800
O41	O4	0.909200	0.964100	0.675500
O51	O5	0.118500	0.092100	0.766300
O61	O6	0.775600	0.870400	0.792700
O71	O7	0.261600	0.110100	0.586900
O81	O8	0.462500	0.249200	0.696500
O91	O9	0.666900	0.214700	0.687200
C11	C1	0.996700	0.260200	0.516200
C21	C2	0.997400	0.384400	0.508400
C31	C3	0.932900	0.396100	0.396000
C41	C4	0.063100	0.487300	0.610300
H11	H1	0.105500	0.478800	0.684500
C51	C5	0.012500	0.024000	0.769400
C61	C6	0.006100	0.010600	0.889100
C71	C7	0.117300	0.074000	0.995200
H21	H2	0.195800	0.123500	0.991500
C81	C8	0.886500	0.934800	0.893000
C91	C9	0.384300	0.147900	0.615200
C101	C10	0.444500	0.071500	0.554600
C111	C11	0.582800	0.109300	0.594800
C121	C12	0.363200	0.962700	0.460600
H31	H3	0.271700	0.937900	0.434500
H41	H4	0.861000	0.235700	0.312000
H51	H5	0.793000	0.873000	0.731300
H61	H6	0.622000	0.250000	0.707000
Sr21	Sr2	0.715960	0.714080	0.225750
O101	O10	0.077500	0.832000	0.575300
O111	O11	0.929400	0.747300	0.389200
O121	O12	0.131900	0.700800	0.707200
O131	O13	0.090800	0.035900	0.324500
O141	O14	0.881500	0.907900	0.233700
O151	O15	0.224400	0.129600	0.207300
O161	O16	0.738400	0.889900	0.413100
O171	O17	0.537500	0.750800	0.303500
O181	O18	0.333100	0.785300	0.312800
C131	C13	0.003300	0.739800	0.483800
C141	C14	0.002600	0.615600	0.491600
C151	C15	0.067100	0.603900	0.604000
C161	C16	0.936900	0.512700	0.389700
H71	H7	0.894500	0.521200	0.315500
C171	C17	0.987500	0.976000	0.230600
C181	C18	0.993900	0.989400	0.110900
C191	C19	0.882700	0.926000	0.004800
H81	H8	0.804200	0.876500	0.008500
C201	C20	0.113500	0.065200	0.107000
C211	C21	0.615700	0.852100	0.384800
C221	C22	0.555500	0.928500	0.445400
C231	C23	0.417200	0.890700	0.405200
C241	C24	0.636800	0.037300	0.539400
H91	H9	0.728300	0.062100	0.565500
H101	H10	0.139000	0.764300	0.688000
H111	H11	0.207000	0.127000	0.268700
H121	H12	0.378000	0.750000	0.293000
Sr31	Sr3	0.000000	0.000000	0.500000
