data_YUGLES_clean_PM
_symmetry_space_group_name_H-M	'P1'
_cell_length_a	15.374000
_cell_length_b	15.374000
_cell_length_c	15.374000
_cell_angle_alpha	74.841500
_cell_angle_beta	74.841500
_cell_angle_gamma	74.841500
_symmetry_Int_Tables_number 1

loop_
_symmetry_equiv_pos_as_xyz
'x,y,z'

loop_
_atom_site_label
_atom_site_type_symbol
_atom_site_fract_x
_atom_site_fract_y
_atom_site_fract_z
Cu11	Cu1	0.990220	0.990220	0.420070
Cu21	Cu2	0.420070	0.990220	0.990220
Cu31	Cu3	0.990220	0.420070	0.990220
Cu41	Cu4	0.009780	0.009780	0.579930
Cu51	Cu5	0.009780	0.579930	0.009780
Cu61	Cu6	0.579930	0.009780	0.009780
H11	H1	0.988900	0.303000	0.516400
H21	H2	0.516400	0.988900	0.303000
H31	H3	0.303000	0.516400	0.988900
H41	H4	0.697000	0.011100	0.483600
H51	H5	0.011100	0.483600	0.697000
H61	H6	0.483600	0.697000	0.011100
H71	H7	0.011100	0.697000	0.483600
H81	H8	0.483600	0.011100	0.697000
H91	H9	0.697000	0.483600	0.011100
H101	H10	0.303000	0.988900	0.516400
H111	H11	0.988900	0.516400	0.303000
H121	H12	0.516400	0.303000	0.988900
H131	H13	0.974100	0.271000	0.271000
H141	H14	0.271000	0.974100	0.271000
H151	H15	0.271000	0.271000	0.974100
H161	H16	0.729000	0.025900	0.729000
H171	H17	0.025900	0.729000	0.729000
H181	H18	0.729000	0.729000	0.025900
C11	C1	0.981560	0.271460	0.400960
C21	C2	0.987230	0.327230	0.454630
C31	C3	0.983630	0.170730	0.438630
C41	C4	0.400960	0.981560	0.271460
C51	C5	0.454630	0.987230	0.327230
C61	C6	0.438630	0.983630	0.170730
C71	C7	0.271460	0.400960	0.981560
C81	C8	0.327230	0.454630	0.987230
C91	C9	0.170730	0.438630	0.983630
C101	C10	0.728540	0.018440	0.599040
C111	C11	0.672770	0.012770	0.545370
C121	C12	0.829270	0.016370	0.561370
C131	C13	0.018440	0.599040	0.728540
C141	C14	0.012770	0.545370	0.672770
C151	C15	0.016370	0.561370	0.829270
C161	C16	0.599040	0.728540	0.018440
C171	C17	0.545370	0.672770	0.012770
C181	C18	0.561370	0.829270	0.016370
C191	C19	0.018440	0.728540	0.599040
C201	C20	0.012770	0.672770	0.545370
C211	C21	0.016370	0.829270	0.561370
C221	C22	0.599040	0.018440	0.728540
C231	C23	0.545370	0.012770	0.672770
C241	C24	0.561370	0.016370	0.829270
C251	C25	0.728540	0.599040	0.018440
C261	C26	0.672770	0.545370	0.012770
C271	C27	0.829270	0.561370	0.016370
C281	C28	0.271460	0.981560	0.400960
C291	C29	0.327230	0.987230	0.454630
C301	C30	0.170730	0.983630	0.438630
C311	C31	0.981560	0.400960	0.271460
C321	C32	0.987230	0.454630	0.327230
C331	C33	0.983630	0.438630	0.170730
C341	C34	0.400960	0.271460	0.981560
C351	C35	0.454630	0.327230	0.987230
C361	C36	0.438630	0.170730	0.983630
C371	C37	0.990400	0.419150	0.419150
C381	C38	0.996220	0.476870	0.476870
C391	C39	0.978360	0.308110	0.308110
C401	C40	0.419150	0.990400	0.419150
C411	C41	0.476870	0.996220	0.476870
C421	C42	0.308110	0.978360	0.308110
C431	C43	0.419150	0.419150	0.990400
C441	C44	0.476870	0.476870	0.996220
C451	C45	0.308110	0.308110	0.978360
C461	C46	0.580850	0.009600	0.580850
C471	C47	0.523130	0.003780	0.523130
C481	C48	0.691890	0.021640	0.691890
C491	C49	0.009600	0.580850	0.580850
C501	C50	0.003780	0.523130	0.523130
C511	C51	0.021640	0.691890	0.691890
C521	C52	0.580850	0.580850	0.009600
C531	C53	0.523130	0.523130	0.003780
C541	C54	0.691890	0.691890	0.021640
O11	O1	0.978900	0.124290	0.384020
O21	O2	0.993910	0.140210	0.520970
O31	O3	0.384020	0.978900	0.124290
O41	O4	0.520970	0.993910	0.140210
O51	O5	0.124290	0.384020	0.978900
O61	O6	0.140210	0.520970	0.993910
O71	O7	0.875710	0.021100	0.615980
O81	O8	0.859790	0.006090	0.479030
O91	O9	0.021100	0.615980	0.875710
O101	O10	0.006090	0.479030	0.859790
O111	O11	0.615980	0.875710	0.021100
O121	O12	0.479030	0.859790	0.006090
O131	O13	0.021100	0.875710	0.615980
O141	O14	0.006090	0.859790	0.479030
O151	O15	0.615980	0.021100	0.875710
O161	O16	0.479030	0.006090	0.859790
O171	O17	0.875710	0.615980	0.021100
O181	O18	0.859790	0.479030	0.006090
O191	O19	0.124290	0.978900	0.384020
O201	O20	0.140210	0.993910	0.520970
O211	O21	0.978900	0.384020	0.124290
O221	O22	0.993910	0.520970	0.140210
O231	O23	0.384020	0.124290	0.978900
O241	O24	0.520970	0.140210	0.993910
