data_YUGZIK_clean_PM
_symmetry_space_group_name_H-M	'P1'
_cell_length_a	23.595600
_cell_length_b	23.595600
_cell_length_c	30.754400
_cell_angle_alpha	69.537000
_cell_angle_beta	69.536900
_cell_angle_gamma	95.086300
_symmetry_Int_Tables_number 1

loop_
_symmetry_equiv_pos_as_xyz
'x,y,z'

loop_
_atom_site_label
_atom_site_type_symbol
_atom_site_fract_x
_atom_site_fract_y
_atom_site_fract_z
Zn11	Zn1	0.633150	0.383150	0.733700
Zn21	Zn2	0.116850	0.866850	0.766300
Zn31	Zn3	0.366850	0.616850	0.266300
Zn41	Zn4	0.883150	0.133150	0.233700
Zn51	Zn5	0.097080	0.347080	0.805840
Zn61	Zn6	0.152920	0.402920	0.694160
Zn71	Zn7	0.902920	0.652920	0.194160
Zn81	Zn8	0.847080	0.597080	0.305840
H11	H1	0.718400	0.186000	0.749000
H21	H2	0.798000	0.259400	0.748800
H31	H3	0.822800	0.485400	0.748400
H41	H4	0.756800	0.559400	0.750400
H51	H5	0.883400	0.407200	0.673200
H61	H6	0.980600	0.411400	0.674000
H71	H7	0.904400	0.335200	0.823800
H81	H8	0.807200	0.333800	0.821800
H91	H9	0.574400	0.124600	0.804800
H101	H10	0.578800	0.025600	0.802800
H111	H11	0.598600	0.017800	0.726600
H121	H12	0.643600	0.106200	0.649600
H131	H13	0.648000	0.206000	0.654800
H141	H14	0.875400	0.519400	0.392400
H151	H15	0.834800	0.476800	0.479200
H161	H16	0.650500	0.511900	0.557000
H171	H17	0.609800	0.468000	0.642800
H181	H18	0.532600	0.565000	0.749000
H191	H19	0.453200	0.491800	0.748800
H201	H20	0.428800	0.266200	0.748400
H211	H21	0.492800	0.190200	0.750400
H221	H22	0.443400	0.419600	0.673200
H231	H23	0.345400	0.414600	0.674000
H241	H24	0.271800	0.341000	0.823800
H251	H25	0.371000	0.344400	0.821800
H261	H26	0.620800	0.570600	0.804800
H271	H27	0.618400	0.671600	0.802800
H281	H28	0.674800	0.755600	0.726600
H291	H29	0.706800	0.744200	0.649600
H301	H30	0.697200	0.639200	0.654800
H311	H31	0.732200	0.588200	0.392400
H321	H32	0.686000	0.544000	0.479200
H331	H33	0.792500	0.431100	0.557000
H341	H34	0.747400	0.389200	0.642800
H351	H35	0.314000	0.781600	0.751000
H361	H36	0.240600	0.702000	0.751200
H371	H37	0.014600	0.677200	0.751600
H381	H38	0.940600	0.743200	0.749600
H391	H39	0.092800	0.616600	0.826800
H401	H40	0.088600	0.519400	0.826000
H411	H41	0.164800	0.595600	0.676200
H421	H42	0.166200	0.692800	0.678200
H431	H43	0.375400	0.925600	0.695200
H441	H44	0.474400	0.921200	0.697200
H451	H45	0.482200	0.901400	0.773400
H461	H46	0.393800	0.856400	0.850400
H471	H47	0.294000	0.852000	0.845200
H481	H48	0.980600	0.624600	0.107600
H491	H49	0.023200	0.665200	0.020800
H501	H50	0.988100	0.849500	0.943000
H511	H51	0.032000	0.890200	0.857200
H521	H52	0.935000	0.967400	0.751000
H531	H53	0.008200	0.046800	0.751200
H541	H54	0.233800	0.071200	0.751600
H551	H55	0.309800	0.007200	0.749600
H561	H56	0.080400	0.056600	0.826800
H571	H57	0.085400	0.154600	0.826000
H581	H58	0.159000	0.228200	0.676200
H591	H59	0.155600	0.129000	0.678200
H601	H60	0.929400	0.879200	0.695200
H611	H61	0.828400	0.881600	0.697200
H621	H62	0.744400	0.825200	0.773400
H631	H63	0.755800	0.793200	0.850400
H641	H64	0.860800	0.802800	0.845200
H651	H65	0.911800	0.767800	0.107600
H661	H66	0.956000	0.814000	0.020800
H671	H67	0.068900	0.707500	0.943000
H681	H68	0.110800	0.752600	0.857200
H691	H69	0.281600	0.814000	0.251000
H701	H70	0.202000	0.740600	0.251200
H711	H71	0.177200	0.514600	0.251600
H721	H72	0.243200	0.440600	0.249600
H731	H73	0.116600	0.592800	0.326800
H741	H74	0.019400	0.588600	0.326000
H751	H75	0.095600	0.664800	0.176200
H761	H76	0.192800	0.666200	0.178200
H771	H77	0.425600	0.875400	0.195200
H781	H78	0.421200	0.974400	0.197200
H791	H79	0.401400	0.982200	0.273400
H801	H80	0.356400	0.893800	0.350400
H811	H81	0.352000	0.794000	0.345200
H821	H82	0.124600	0.480600	0.607600
H831	H83	0.165200	0.523200	0.520800
H841	H84	0.349500	0.488100	0.443000
H851	H85	0.390200	0.532000	0.357200
H861	H86	0.467400	0.435000	0.251000
H871	H87	0.546800	0.508200	0.251200
H881	H88	0.571200	0.733800	0.251600
H891	H89	0.507200	0.809800	0.249600
H901	H90	0.556600	0.580400	0.326800
H911	H91	0.654600	0.585400	0.326000
H921	H92	0.728200	0.659000	0.176200
H931	H93	0.629000	0.655600	0.178200
H941	H94	0.379200	0.429400	0.195200
H951	H95	0.381600	0.328400	0.197200
H961	H96	0.325200	0.244400	0.273400
H971	H97	0.293200	0.255800	0.350400
H981	H98	0.302800	0.360800	0.345200
H991	H99	0.267800	0.411800	0.607600
H1001	H100	0.314000	0.456000	0.520800
H1011	H101	0.207500	0.568900	0.443000
H1021	H102	0.252600	0.610800	0.357200
H1031	H103	0.686000	0.218400	0.249000
H1041	H104	0.759400	0.298000	0.248800
H1051	H105	0.985400	0.322800	0.248400
H1061	H106	0.059400	0.256800	0.250400
H1071	H107	0.907200	0.383400	0.173200
H1081	H108	0.911400	0.480600	0.174000
H1091	H109	0.835200	0.404400	0.323800
H1101	H110	0.833800	0.307200	0.321800
H1111	H111	0.624600	0.074400	0.304800
H1121	H112	0.525600	0.078800	0.302800
H1131	H113	0.517800	0.098600	0.226600
H1141	H114	0.606200	0.143600	0.149600
H1151	H115	0.706000	0.148000	0.154800
H1161	H116	0.019400	0.375400	0.892400
H1171	H117	0.976800	0.334800	0.979200
H1181	H118	0.011900	0.150500	0.057000
H1191	H119	0.968000	0.109800	0.142800
H1201	H120	0.065000	0.032600	0.249000
H1211	H121	0.991800	0.953200	0.248800
H1221	H122	0.766200	0.928800	0.248400
H1231	H123	0.690200	0.992800	0.250400
H1241	H124	0.919600	0.943400	0.173200
H1251	H125	0.914600	0.845400	0.174000
H1261	H126	0.841000	0.771800	0.323800
H1271	H127	0.844400	0.871000	0.321800
H1281	H128	0.070600	0.120800	0.304800
H1291	H129	0.171600	0.118400	0.302800
H1301	H130	0.255600	0.174800	0.226600
H1311	H131	0.244200	0.206800	0.149600
H1321	H132	0.139200	0.197200	0.154800
H1331	H133	0.088200	0.232200	0.892400
H1341	H134	0.044000	0.186000	0.979200
H1351	H135	0.931100	0.292500	0.057000
H1361	H136	0.889200	0.247400	0.142800
C11	C1	0.666560	0.257160	0.745840
C21	C2	0.716870	0.225670	0.748000
C31	C3	0.760070	0.266190	0.748060
C41	C4	0.739540	0.320800	0.746720
C51	C5	0.771600	0.373000	0.747080
C61	C6	0.750620	0.426620	0.747080
C71	C7	0.783350	0.480150	0.748160
C81	C8	0.747690	0.521110	0.748880
C91	C9	0.692160	0.493720	0.746940
C101	C10	0.611800	0.230280	0.745640
C111	C11	0.835290	0.371410	0.747260
C121	C12	0.886950	0.392930	0.704160
C131	C13	0.945450	0.394390	0.704580
C141	C14	0.952250	0.371150	0.749120
C151	C15	0.900990	0.349810	0.792720
C161	C16	0.842380	0.349560	0.791380
C171	C17	0.016360	0.371340	0.749460
C181	C18	0.611200	0.174400	0.732000
C191	C19	0.589900	0.121900	0.773600
C201	C20	0.589240	0.060840	0.773120
C211	C21	0.604800	0.057000	0.727000
C221	C22	0.629670	0.109470	0.680660
C231	C23	0.632200	0.169800	0.684400
C241	C24	0.836940	0.525240	0.409820
C251	C25	0.812290	0.498690	0.462620
C261	C26	0.671440	0.487140	0.573420
C271	C27	0.647150	0.460410	0.625180
C281	C28	0.587600	0.497000	0.745840
C291	C29	0.535130	0.526330	0.748000
C301	C30	0.491870	0.485750	0.748060
C311	C31	0.513740	0.432480	0.746720
C321	C32	0.481320	0.379920	0.747080
C331	C33	0.502300	0.326300	0.747080
C341	C34	0.468490	0.271690	0.748160
C351	C35	0.503430	0.230010	0.748880
C361	C36	0.560900	0.259340	0.746940
C371	C37	0.642560	0.524080	0.745640
C381	C38	0.417450	0.381330	0.747260
C391	C39	0.408890	0.402910	0.704160
C401	C40	0.349970	0.401030	0.704580
C411	C41	0.298630	0.379730	0.749120
C421	C42	0.306290	0.357470	0.792720
C431	C43	0.366240	0.359060	0.791380
C441	C44	0.234180	0.379200	0.749460
C451	C45	0.656800	0.593600	0.732000
C461	C46	0.636500	0.604500	0.773600
C471	C47	0.637640	0.666040	0.773120
C481	C48	0.668200	0.716000	0.727000
C491	C49	0.689670	0.709870	0.680660
C501	C50	0.683400	0.645800	0.684400
C511	C51	0.753240	0.564940	0.409820
C521	C52	0.725090	0.538690	0.462620
C531	C53	0.755140	0.439440	0.573420
C541	C54	0.727670	0.414410	0.625180
C551	C55	0.242840	0.833440	0.754160
C561	C56	0.274330	0.783130	0.752000
C571	C57	0.233810	0.739930	0.751940
C581	C58	0.179200	0.760460	0.753280
C591	C59	0.127000	0.728400	0.752920
C601	C60	0.073380	0.749380	0.752920
C611	C61	0.019850	0.716650	0.751840
C621	C62	0.978890	0.752310	0.751120
C631	C63	0.006280	0.807840	0.753060
C641	C64	0.269720	0.888200	0.754360
C651	C65	0.128590	0.664710	0.752740
C661	C66	0.107070	0.613050	0.795840
C671	C67	0.105610	0.554550	0.795420
C681	C68	0.128850	0.547750	0.750880
C691	C69	0.150190	0.599010	0.707280
C701	C70	0.150440	0.657620	0.708620
C711	C71	0.128660	0.483640	0.750540
C721	C72	0.325600	0.888800	0.768000
C731	C73	0.378100	0.910100	0.726400
C741	C74	0.439160	0.910760	0.726880
C751	C75	0.443000	0.895200	0.773000
C761	C76	0.390530	0.870330	0.819340
C771	C77	0.330200	0.867800	0.815600
C781	C78	0.974760	0.663060	0.090180
C791	C79	0.001310	0.687710	0.037380
C801	C80	0.012860	0.828560	0.926580
C811	C81	0.039590	0.852850	0.874820
C821	C82	0.003000	0.912400	0.754160
C831	C83	0.973670	0.964870	0.752000
C841	C84	0.014250	0.008130	0.751940
C851	C85	0.067520	0.986260	0.753280
C861	C86	0.120080	0.018680	0.752920
C871	C87	0.173700	0.997700	0.752920
C881	C88	0.228310	0.031510	0.751840
C891	C89	0.269990	0.996570	0.751120
C901	C90	0.240660	0.939100	0.753060
C911	C91	0.975920	0.857440	0.754360
C921	C92	0.118670	0.082550	0.752740
C931	C93	0.097090	0.091110	0.795840
C941	C94	0.098970	0.150030	0.795420
C951	C95	0.120270	0.201370	0.750880
C961	C96	0.142530	0.193710	0.707280
C971	C97	0.140940	0.133760	0.708620
C981	C98	0.120800	0.265820	0.750540
C991	C99	0.906400	0.843200	0.768000
C1001	C100	0.895500	0.863500	0.726400
C1011	C101	0.833960	0.862360	0.726880
C1021	C102	0.784000	0.831800	0.773000
C1031	C103	0.790130	0.810330	0.819340
C1041	C104	0.854200	0.816600	0.815600
C1051	C105	0.935060	0.746760	0.090180
C1061	C106	0.961310	0.774910	0.037380
C1071	C107	0.060560	0.744860	0.926580
C1081	C108	0.085590	0.772330	0.874820
C1091	C109	0.333440	0.742840	0.254160
C1101	C110	0.283130	0.774330	0.252000
C1111	C111	0.239930	0.733810	0.251940
C1121	C112	0.260460	0.679200	0.253280
C1131	C113	0.228400	0.627000	0.252920
C1141	C114	0.249380	0.573380	0.252920
C1151	C115	0.216650	0.519850	0.251840
C1161	C116	0.252310	0.478890	0.251120
C1171	C117	0.307840	0.506280	0.253060
C1181	C118	0.388200	0.769720	0.254360
C1191	C119	0.164710	0.628590	0.252740
C1201	C120	0.113050	0.607070	0.295840
C1211	C121	0.054550	0.605610	0.295420
C1221	C122	0.047750	0.628850	0.250880
C1231	C123	0.099010	0.650190	0.207280
C1241	C124	0.157620	0.650440	0.208620
C1251	C125	0.983640	0.628660	0.250540
C1261	C126	0.388800	0.825600	0.268000
C1271	C127	0.410100	0.878100	0.226400
C1281	C128	0.410760	0.939160	0.226880
C1291	C129	0.395200	0.943000	0.273000
C1301	C130	0.370330	0.890530	0.319340
C1311	C131	0.367800	0.830200	0.315600
C1321	C132	0.163060	0.474760	0.590180
C1331	C133	0.187710	0.501310	0.537380
C1341	C134	0.328560	0.512860	0.426580
C1351	C135	0.352850	0.539590	0.374820
C1361	C136	0.412400	0.503000	0.254160
C1371	C137	0.464870	0.473670	0.252000
C1381	C138	0.508130	0.514250	0.251940
C1391	C139	0.486260	0.567520	0.253280
C1401	C140	0.518680	0.620080	0.252920
C1411	C141	0.497700	0.673700	0.252920
C1421	C142	0.531510	0.728310	0.251840
C1431	C143	0.496570	0.769990	0.251120
C1441	C144	0.439100	0.740660	0.253060
C1451	C145	0.357440	0.475920	0.254360
C1461	C146	0.582550	0.618670	0.252740
C1471	C147	0.591110	0.597090	0.295840
C1481	C148	0.650030	0.598970	0.295420
C1491	C149	0.701370	0.620270	0.250880
C1501	C150	0.693710	0.642530	0.207280
C1511	C151	0.633760	0.640940	0.208620
C1521	C152	0.765820	0.620800	0.250540
C1531	C153	0.343200	0.406400	0.268000
C1541	C154	0.363500	0.395500	0.226400
C1551	C155	0.362360	0.333960	0.226880
C1561	C156	0.331800	0.284000	0.273000
C1571	C157	0.310330	0.290130	0.319340
C1581	C158	0.316600	0.354200	0.315600
C1591	C159	0.246760	0.435060	0.590180
C1601	C160	0.274910	0.461310	0.537380
C1611	C161	0.244860	0.560560	0.426580
C1621	C162	0.272330	0.585590	0.374820
C1631	C163	0.757160	0.166560	0.245840
C1641	C164	0.725670	0.216870	0.248000
C1651	C165	0.766190	0.260070	0.248060
C1661	C166	0.820800	0.239540	0.246720
C1671	C167	0.873000	0.271600	0.247080
C1681	C168	0.926620	0.250620	0.247080
C1691	C169	0.980150	0.283350	0.248160
C1701	C170	0.021110	0.247690	0.248880
C1711	C171	0.993720	0.192160	0.246940
C1721	C172	0.730280	0.111800	0.245640
C1731	C173	0.871410	0.335290	0.247260
C1741	C174	0.892930	0.386950	0.204160
C1751	C175	0.894390	0.445450	0.204580
C1761	C176	0.871150	0.452250	0.249120
C1771	C177	0.849810	0.400990	0.292720
C1781	C178	0.849560	0.342380	0.291380
C1791	C179	0.871340	0.516360	0.249460
C1801	C180	0.674400	0.111200	0.232000
C1811	C181	0.621900	0.089900	0.273600
C1821	C182	0.560840	0.089240	0.273120
C1831	C183	0.557000	0.104800	0.227000
C1841	C184	0.609470	0.129670	0.180660
C1851	C185	0.669800	0.132200	0.184400
C1861	C186	0.025240	0.336940	0.909820
C1871	C187	0.998690	0.312290	0.962620
C1881	C188	0.987140	0.171440	0.073420
C1891	C189	0.960410	0.147150	0.125180
C1901	C190	0.997000	0.087600	0.245840
C1911	C191	0.026330	0.035130	0.248000
C1921	C192	0.985750	0.991870	0.248060
C1931	C193	0.932480	0.013740	0.246720
C1941	C194	0.879920	0.981320	0.247080
C1951	C195	0.826300	0.002300	0.247080
C1961	C196	0.771690	0.968490	0.248160
C1971	C197	0.730010	0.003430	0.248880
C1981	C198	0.759340	0.060900	0.246940
C1991	C199	0.024080	0.142560	0.245640
C2001	C200	0.881330	0.917450	0.247260
C2011	C201	0.902910	0.908890	0.204160
C2021	C202	0.901030	0.849970	0.204580
C2031	C203	0.879730	0.798630	0.249120
C2041	C204	0.857470	0.806290	0.292720
C2051	C205	0.859060	0.866240	0.291380
C2061	C206	0.879200	0.734180	0.249460
C2071	C207	0.093600	0.156800	0.232000
C2081	C208	0.104500	0.136500	0.273600
C2091	C209	0.166040	0.137640	0.273120
C2101	C210	0.216000	0.168200	0.227000
C2111	C211	0.209870	0.189670	0.180660
C2121	C212	0.145800	0.183400	0.184400
C2131	C213	0.064940	0.253240	0.909820
C2141	C214	0.038690	0.225090	0.962620
C2151	C215	0.939440	0.255140	0.073420
C2161	C216	0.914410	0.227670	0.125180
C2171	C217	0.754780	0.504780	0.490440
C2181	C218	0.727530	0.477530	0.544940
C2191	C219	0.995220	0.745220	0.009560
C2201	C220	0.022470	0.772470	0.955060
C2211	C221	0.245220	0.495220	0.509560
C2221	C222	0.272470	0.522470	0.455060
C2231	C223	0.004780	0.254780	0.990440
C2241	C224	0.977530	0.227530	0.044940
N11	N1	0.681270	0.314190	0.745560
N21	N2	0.694520	0.437540	0.745780
N31	N3	0.573170	0.440250	0.745560
N41	N4	0.559700	0.316680	0.745780
N51	N5	0.185810	0.818730	0.754440
N61	N6	0.062460	0.805480	0.754220
N71	N7	0.059750	0.926830	0.754440
N81	N8	0.183320	0.940300	0.754220
N91	N9	0.318730	0.685810	0.254440
N101	N10	0.305480	0.562460	0.254220
N111	N11	0.426830	0.559750	0.254440
N121	N12	0.440300	0.683320	0.254220
N131	N13	0.814190	0.181270	0.245560
N141	N14	0.937540	0.194520	0.245780
N151	N15	0.940250	0.073170	0.245560
N161	N16	0.816680	0.059700	0.245780
N171	N17	0.808720	0.558720	0.382560
N181	N18	0.673980	0.423980	0.652040
N191	N19	0.941280	0.691280	0.117440
N201	N20	0.076020	0.826020	0.847960
N211	N21	0.191280	0.441280	0.617440
N221	N22	0.326020	0.576020	0.347960
N231	N23	0.058720	0.308720	0.882560
N241	N24	0.923980	0.173980	0.152040
O11	O1	0.018600	0.350680	0.791780
O21	O2	0.061350	0.392650	0.706980
O31	O3	0.189620	0.357540	0.791780
O41	O4	0.231670	0.400370	0.706980
O51	O5	0.149320	0.481400	0.708220
O61	O6	0.107350	0.438650	0.793020
O71	O7	0.142460	0.310380	0.708220
O81	O8	0.099630	0.268330	0.793020
O91	O9	0.981400	0.649320	0.208220
O101	O10	0.938650	0.607350	0.293020
O111	O11	0.810380	0.642460	0.208220
O121	O12	0.768330	0.599630	0.293020
O131	O13	0.850680	0.518600	0.291780
O141	O14	0.892650	0.561350	0.206980
O151	O15	0.857540	0.689620	0.291780
O161	O16	0.900370	0.731670	0.206980
