data_YUHHIU_clean_PM
_symmetry_space_group_name_H-M	'P1'
_cell_length_a	18.659000
_cell_length_b	11.251000
_cell_length_c	10.015000
_cell_angle_alpha	90.000000
_cell_angle_beta	114.120000
_cell_angle_gamma	90.000000
_symmetry_Int_Tables_number 1

loop_
_symmetry_equiv_pos_as_xyz
'x,y,z'

loop_
_atom_site_label
_atom_site_type_symbol
_atom_site_fract_x
_atom_site_fract_y
_atom_site_fract_z
O11	O1	0.100950	0.414000	0.199970
O21	O2	0.092610	0.470460	0.405210
O31	O3	0.190150	0.243070	0.198850
C11	C1	0.122530	0.410830	0.337380
C21	C2	0.189390	0.328220	0.420300
C31	C3	0.218490	0.248070	0.347120
C41	C4	0.221470	0.329060	0.572210
H11	H1	0.202300	0.382300	0.620700
H21	H2	0.158800	0.300000	0.168000
O41	O4	0.600950	0.914000	0.199970
O51	O5	0.592610	0.970460	0.405210
O61	O6	0.690150	0.743070	0.198850
C51	C5	0.622530	0.910830	0.337380
C61	C6	0.689390	0.828220	0.420300
C71	C7	0.718490	0.748070	0.347120
C81	C8	0.721470	0.829060	0.572210
H31	H3	0.702300	0.882300	0.620700
H41	H4	0.658800	0.800000	0.168000
O71	O7	0.899050	0.414000	0.300030
O81	O8	0.907390	0.470460	0.094790
O91	O9	0.809850	0.243070	0.301150
C91	C9	0.877470	0.410830	0.162620
C101	C10	0.810610	0.328220	0.079700
C111	C11	0.781510	0.248070	0.152880
C121	C12	0.778530	0.329060	0.927790
H51	H5	0.797700	0.382300	0.879300
H61	H6	0.841200	0.300000	0.332000
O101	O10	0.399050	0.914000	0.300030
O111	O11	0.407390	0.970460	0.094790
O121	O12	0.309850	0.743070	0.301150
C131	C13	0.377470	0.910830	0.162620
C141	C14	0.310610	0.828220	0.079700
C151	C15	0.281510	0.748070	0.152880
C161	C16	0.278530	0.829060	0.927790
H71	H7	0.297700	0.882300	0.879300
H81	H8	0.341200	0.800000	0.332000
O131	O13	0.899050	0.586000	0.800030
O141	O14	0.907390	0.529540	0.594790
O151	O15	0.809850	0.756930	0.801150
C171	C17	0.877470	0.589170	0.662620
C181	C18	0.810610	0.671780	0.579700
C191	C19	0.781510	0.751930	0.652880
C201	C20	0.778530	0.670940	0.427790
H91	H9	0.797700	0.617700	0.379300
H101	H10	0.841200	0.700000	0.832000
O161	O16	0.399050	0.086000	0.800030
O171	O17	0.407390	0.029540	0.594790
O181	O18	0.309850	0.256930	0.801150
C211	C21	0.377470	0.089170	0.662620
C221	C22	0.310610	0.171780	0.579700
C231	C23	0.281510	0.251930	0.652880
C241	C24	0.278530	0.170940	0.427790
H111	H11	0.297700	0.117700	0.379300
H121	H12	0.341200	0.200000	0.832000
O191	O19	0.100950	0.586000	0.699970
O201	O20	0.092610	0.529540	0.905210
O211	O21	0.190150	0.756930	0.698850
C251	C25	0.122530	0.589170	0.837380
C261	C26	0.189390	0.671780	0.920300
C271	C27	0.218490	0.751930	0.847120
C281	C28	0.221470	0.670940	0.072210
H131	H13	0.202300	0.617700	0.120700
H141	H14	0.158800	0.700000	0.668000
O221	O22	0.600950	0.086000	0.699970
O231	O23	0.592610	0.029540	0.905210
O241	O24	0.690150	0.256930	0.698850
C291	C29	0.622530	0.089170	0.837380
C301	C30	0.689390	0.171780	0.920300
C311	C31	0.718490	0.251930	0.847120
C321	C32	0.721470	0.170940	0.072210
H151	H15	0.702300	0.117700	0.120700
H161	H16	0.658800	0.200000	0.668000
Ca11	Ca1	0.000000	0.500000	0.000000
Ca21	Ca2	0.500000	0.000000	0.000000
Ca31	Ca3	0.000000	0.500000	0.500000
Ca41	Ca4	0.500000	0.000000	0.500000
