data_YUKKAR_clean_PM
_symmetry_space_group_name_H-M	'P1'
_cell_length_a	9.470000
_cell_length_b	9.784500
_cell_length_c	12.742500
_cell_angle_alpha	87.246500
_cell_angle_beta	84.302900
_cell_angle_gamma	61.057700
_symmetry_Int_Tables_number 1

loop_
_symmetry_equiv_pos_as_xyz
'x,y,z'

loop_
_atom_site_label
_atom_site_type_symbol
_atom_site_fract_x
_atom_site_fract_y
_atom_site_fract_z
Mn11	Mn1	0.654260	0.691480	0.000000
Mn21	Mn2	0.345740	0.308520	0.000000
H11	H1	0.435600	0.233800	0.425800
H21	H2	0.555400	0.228600	0.259000
H31	H3	0.063300	0.764600	0.144300
H41	H4	0.311700	0.763600	0.138700
H51	H5	0.684000	0.100000	0.108000
H61	H6	0.330600	0.233800	0.574200
H71	H7	0.216000	0.228600	0.741000
H81	H8	0.172100	0.764600	0.855700
H91	H9	0.924700	0.763600	0.861300
H101	H10	0.216000	0.100000	0.892000
H111	H11	0.564400	0.766200	0.574200
H121	H12	0.444600	0.771400	0.741000
H131	H13	0.936700	0.235400	0.855700
H141	H14	0.688300	0.236400	0.861300
H151	H15	0.316000	0.900000	0.892000
H161	H16	0.669400	0.766200	0.425800
H171	H17	0.784000	0.771400	0.259000
H181	H18	0.827900	0.235400	0.144300
H191	H19	0.075300	0.236400	0.138700
H201	H20	0.784000	0.900000	0.108000
C11	C1	0.508900	0.136200	0.393600
C21	C2	0.581300	0.133200	0.295100
C31	C3	0.065900	0.860600	0.142500
C41	C4	0.214000	0.859800	0.138100
C51	C5	0.468200	0.535400	0.946900
C61	C6	0.354900	0.136200	0.606400
C71	C7	0.285500	0.133200	0.704900
C81	C8	0.073500	0.860600	0.857500
C91	C9	0.926200	0.859800	0.861900
C101	C10	0.996400	0.535400	0.053100
C111	C11	0.491100	0.863800	0.606400
C121	C12	0.418700	0.866800	0.704900
C131	C13	0.934100	0.139400	0.857500
C141	C14	0.786000	0.140200	0.861900
C151	C15	0.531800	0.464600	0.053100
C161	C16	0.645100	0.863800	0.393600
C171	C17	0.714500	0.866800	0.295100
C181	C18	0.926500	0.139400	0.142500
C191	C19	0.073800	0.140200	0.138100
C201	C20	0.003600	0.464600	0.946900
C211	C21	0.540200	0.000000	0.447200
C221	C22	0.764500	0.000000	0.140400
C231	C23	0.923300	0.000000	0.144200
C241	C24	0.218700	0.000000	0.132800
C251	C25	0.377500	0.000000	0.117500
C261	C26	0.459800	0.000000	0.552800
C271	C27	0.235500	0.000000	0.859600
C281	C28	0.076700	0.000000	0.855800
C291	C29	0.781300	0.000000	0.867200
C301	C30	0.622500	0.000000	0.882500
N11	N1	0.686800	0.000000	0.249100
N21	N2	0.313200	0.000000	0.750900
O11	O1	0.505430	0.870740	0.112300
O21	O2	0.501800	0.637400	0.908500
O31	O3	0.387850	0.485300	0.905400
O41	O4	0.623830	0.870740	0.887700
O51	O5	0.860800	0.637400	0.091500
O61	O6	0.126850	0.485300	0.094600
O71	O7	0.494570	0.129260	0.887700
O81	O8	0.498200	0.362600	0.091500
O91	O9	0.612150	0.514700	0.094600
O101	O10	0.376170	0.129260	0.112300
O111	O11	0.139200	0.362600	0.908500
O121	O12	0.873150	0.514700	0.905400
