data_YUKVAC_clean_PM
_symmetry_space_group_name_H-M	'P1'
_cell_length_a	8.415600
_cell_length_b	11.850400
_cell_length_c	8.947400
_cell_angle_alpha	90.000000
_cell_angle_beta	90.000000
_cell_angle_gamma	90.000000
_symmetry_Int_Tables_number 1

loop_
_symmetry_equiv_pos_as_xyz
'x,y,z'

loop_
_atom_site_label
_atom_site_type_symbol
_atom_site_fract_x
_atom_site_fract_y
_atom_site_fract_z
O11	O1	0.256310	0.406230	0.368670
O21	O2	0.406640	0.182760	0.413110
O31	O3	0.562000	0.192990	0.611620
C11	C1	0.521700	0.221210	0.483100
H11	H1	0.583100	0.275700	0.435500
O41	O4	0.243690	0.593770	0.368670
O51	O5	0.093360	0.817240	0.413110
O61	O6	0.938000	0.807010	0.611620
C21	C2	0.978300	0.778790	0.483100
H21	H2	0.916900	0.724300	0.435500
O71	O7	0.243690	0.906230	0.131330
O81	O8	0.093360	0.682760	0.086890
O91	O9	0.938000	0.692990	0.888380
C31	C3	0.978300	0.721210	0.016900
H31	H3	0.916900	0.775700	0.064500
O101	O10	0.256310	0.093770	0.131330
O111	O11	0.406640	0.317240	0.086890
O121	O12	0.562000	0.307010	0.888380
C41	C4	0.521700	0.278790	0.016900
H41	H4	0.583100	0.224300	0.064500
O131	O13	0.743690	0.593770	0.631330
O141	O14	0.593360	0.817240	0.586890
O151	O15	0.438000	0.807010	0.388380
C51	C5	0.478300	0.778790	0.516900
H51	H5	0.416900	0.724300	0.564500
O161	O16	0.756310	0.406230	0.631330
O171	O17	0.906640	0.182760	0.586890
O181	O18	0.062000	0.192990	0.388380
C61	C6	0.021700	0.221210	0.516900
H61	H6	0.083100	0.275700	0.564500
O191	O19	0.756310	0.093770	0.868670
O201	O20	0.906640	0.317240	0.913110
O211	O21	0.062000	0.307010	0.111620
C71	C7	0.021700	0.278790	0.983100
H71	H7	0.083100	0.224300	0.935500
O221	O22	0.743690	0.906230	0.868670
O231	O23	0.593360	0.682760	0.913110
O241	O24	0.438000	0.692990	0.111620
C81	C8	0.478300	0.721210	0.983100
H81	H8	0.416900	0.775700	0.935500
Fe11	Fe1	0.252430	0.250000	0.250000
Fe21	Fe2	0.247570	0.750000	0.250000
Fe31	Fe3	0.747570	0.750000	0.750000
Fe41	Fe4	0.752430	0.250000	0.750000
C91	C9	0.250000	0.500000	0.306500
H91	H9	0.250000	0.500000	0.202600
C101	C10	0.250000	0.000000	0.193500
H101	H10	0.250000	0.000000	0.297400
C111	C11	0.750000	0.500000	0.693500
H111	H11	0.750000	0.500000	0.797400
C121	C12	0.750000	0.000000	0.806500
H121	H12	0.750000	0.000000	0.702600
