data_YUKVIK_clean_PM
_symmetry_space_group_name_H-M	'P1'
_cell_length_a	8.261000
_cell_length_b	11.641400
_cell_length_c	8.833200
_cell_angle_alpha	90.000000
_cell_angle_beta	90.000000
_cell_angle_gamma	90.000000
_symmetry_Int_Tables_number 1

loop_
_symmetry_equiv_pos_as_xyz
'x,y,z'

loop_
_atom_site_label
_atom_site_type_symbol
_atom_site_fract_x
_atom_site_fract_y
_atom_site_fract_z
O11	O1	0.255700	0.405000	0.362480
O21	O2	0.407810	0.183750	0.411970
O31	O3	0.567540	0.192690	0.611690
C11	C1	0.524800	0.224620	0.483000
H11	H1	0.584200	0.282800	0.436900
O41	O4	0.244300	0.595000	0.362480
O51	O5	0.092190	0.816250	0.411970
O61	O6	0.932460	0.807310	0.611690
C21	C2	0.975200	0.775380	0.483000
H21	H2	0.915800	0.717200	0.436900
O71	O7	0.244300	0.905000	0.137520
O81	O8	0.092190	0.683750	0.088030
O91	O9	0.932460	0.692690	0.888310
C31	C3	0.975200	0.724620	0.017000
H31	H3	0.915800	0.782800	0.063100
O101	O10	0.255700	0.095000	0.137520
O111	O11	0.407810	0.316250	0.088030
O121	O12	0.567540	0.307310	0.888310
C41	C4	0.524800	0.275380	0.017000
H41	H4	0.584200	0.217200	0.063100
O131	O13	0.744300	0.595000	0.637520
O141	O14	0.592190	0.816250	0.588030
O151	O15	0.432460	0.807310	0.388310
C51	C5	0.475200	0.775380	0.517000
H51	H5	0.415800	0.717200	0.563100
O161	O16	0.755700	0.405000	0.637520
O171	O17	0.907810	0.183750	0.588030
O181	O18	0.067540	0.192690	0.388310
C61	C6	0.024800	0.224620	0.517000
H61	H6	0.084200	0.282800	0.563100
O191	O19	0.755700	0.095000	0.862480
O201	O20	0.907810	0.316250	0.911970
O211	O21	0.067540	0.307310	0.111690
C71	C7	0.024800	0.275380	0.983000
H71	H7	0.084200	0.217200	0.936900
O221	O22	0.744300	0.905000	0.862480
O231	O23	0.592190	0.683750	0.911970
O241	O24	0.432460	0.692690	0.111690
C81	C8	0.475200	0.724620	0.983000
H81	H8	0.415800	0.782800	0.936900
Ni11	Ni1	0.254050	0.250000	0.250000
Ni21	Ni2	0.245950	0.750000	0.250000
Ni31	Ni3	0.745950	0.750000	0.750000
Ni41	Ni4	0.754050	0.250000	0.750000
C91	C9	0.250000	0.500000	0.299300
H91	H9	0.250000	0.500000	0.194000
C101	C10	0.250000	0.000000	0.200700
H101	H10	0.250000	0.000000	0.306000
C111	C11	0.750000	0.500000	0.700700
H111	H11	0.750000	0.500000	0.806000
C121	C12	0.750000	0.000000	0.799300
H121	H12	0.750000	0.000000	0.694000
