data_YUKXEJ_clean_PM
_symmetry_space_group_name_H-M	'P1'
_cell_length_a	9.955500
_cell_length_b	10.546100
_cell_length_c	10.940700
_cell_angle_alpha	80.768000
_cell_angle_beta	71.981000
_cell_angle_gamma	74.567000
_symmetry_Int_Tables_number 1

loop_
_symmetry_equiv_pos_as_xyz
'x,y,z'

loop_
_atom_site_label
_atom_site_type_symbol
_atom_site_fract_x
_atom_site_fract_y
_atom_site_fract_z
Er11	Er1	0.173380	0.192790	0.033690
Zn11	Zn1	0.290910	0.367830	0.618070
N11	N1	0.130000	0.303300	0.575100
N21	N2	0.478100	0.202700	0.572400
C11	C1	0.032600	0.242200	0.659800
H11	H1	0.047000	0.213000	0.741000
C21	C2	0.911900	0.228300	0.631700
H21	H2	0.849000	0.188000	0.689000
C31	C3	0.891500	0.277300	0.512000
H31	H3	0.807000	0.265000	0.491000
C41	C4	0.993800	0.338300	0.422100
C51	C5	0.112200	0.351300	0.457700
C61	C6	0.226900	0.422600	0.372700
C71	C7	0.973400	0.382500	0.289000
C81	C8	0.563600	0.170500	0.455300
H41	H4	0.533000	0.218000	0.390000
C91	C9	0.689400	0.071000	0.438600
H51	H5	0.748000	0.061000	0.354000
C101	C10	0.728600	0.005100	0.546600
H61	H6	0.806000	0.945000	0.538000
C111	C11	0.640900	0.036700	0.669400
C121	C12	0.514800	0.135400	0.677300
C131	C13	0.401800	0.168800	0.803200
C141	C14	0.689700	0.960900	0.784700
C151	C15	0.940700	0.020200	0.062700
O11	O1	0.223300	0.463100	0.260600
O21	O2	0.317300	0.438500	0.425700
O31	O3	0.031400	0.297900	0.209100
O41	O4	0.895100	0.493300	0.268700
O51	O5	0.288600	0.258400	0.799150
O61	O6	0.418400	0.105600	0.905810
O71	O7	0.671400	0.845800	0.816700
O81	O8	0.756800	0.010400	0.837400
O91	O9	0.958000	0.106000	0.119300
O101	O10	0.838000	0.963000	0.097000
Er21	Er2	0.826620	0.807210	0.966310
Zn21	Zn2	0.709090	0.632170	0.381930
N31	N3	0.870000	0.696700	0.424900
N41	N4	0.521900	0.797300	0.427600
C161	C16	0.967400	0.757800	0.340200
H71	H7	0.953000	0.787000	0.259000
C171	C17	0.088100	0.771700	0.368300
H81	H8	0.151000	0.812000	0.311000
C181	C18	0.108500	0.722700	0.488000
H91	H9	0.193000	0.735000	0.509000
C191	C19	0.006200	0.661700	0.577900
C201	C20	0.887800	0.648700	0.542300
C211	C21	0.773100	0.577400	0.627300
C221	C22	0.026600	0.617500	0.711000
C231	C23	0.436400	0.829500	0.544700
H101	H10	0.467000	0.782000	0.610000
C241	C24	0.310600	0.929000	0.561400
H111	H11	0.252000	0.939000	0.646000
C251	C25	0.271400	0.994900	0.453400
H121	H12	0.194000	0.055000	0.462000
C261	C26	0.359100	0.963300	0.330600
C271	C27	0.485200	0.864600	0.322700
C281	C28	0.598200	0.831200	0.196800
C291	C29	0.310300	0.039100	0.215300
C301	C30	0.059300	0.979800	0.937300
O111	O11	0.776700	0.536900	0.739400
O121	O12	0.682700	0.561500	0.574300
O131	O13	0.968600	0.702100	0.790900
O141	O14	0.104900	0.506700	0.731300
O151	O15	0.711400	0.741600	0.200850
O161	O16	0.581600	0.894400	0.094190
O171	O17	0.328600	0.154200	0.183300
O181	O18	0.243200	0.989600	0.162600
O191	O19	0.042000	0.894000	0.880700
O201	O20	0.162000	0.037000	0.903000
