data_YULNOK_clean_PM
_symmetry_space_group_name_H-M	'P1'
_cell_length_a	16.363000
_cell_length_b	16.363000
_cell_length_c	19.196000
_cell_angle_alpha	90.000000
_cell_angle_beta	90.000000
_cell_angle_gamma	120.000000
_symmetry_Int_Tables_number 1

loop_
_symmetry_equiv_pos_as_xyz
'x,y,z'

loop_
_atom_site_label
_atom_site_type_symbol
_atom_site_fract_x
_atom_site_fract_y
_atom_site_fract_z
Cu11	Cu1	0.771140	0.317920	0.509040
O11	O1	0.861100	0.398400	0.437600
O21	O2	0.912300	0.406800	0.329100
O31	O3	0.666500	0.220300	0.565000
O41	O4	0.592000	0.133600	0.657200
N11	N1	0.869000	0.314500	0.567700
H11	H1	0.878100	0.356100	0.607200
C11	C1	0.934400	0.306900	0.406900
C21	C2	0.938200	0.251800	0.352700
H21	H2	0.921400	0.258700	0.307700
C31	C3	0.967700	0.185500	0.366800
H31	H3	0.968000	0.147400	0.330900
C41	C4	0.995400	0.176500	0.430900
H41	H4	0.015200	0.133000	0.438900
C51	C5	0.994400	0.231100	0.484400
H51	H5	0.015300	0.225700	0.528300
C61	C6	0.962100	0.295600	0.473900
C71	C7	0.899700	0.374500	0.389700
C81	C8	0.962900	0.352900	0.535300
H61	H6	0.007100	0.354700	0.569800
H71	H7	0.984700	0.417200	0.520300
C91	C9	0.834900	0.219300	0.598700
H81	H8	0.887200	0.217500	0.621000
H91	H9	0.810800	0.172100	0.562100
C101	C10	0.757200	0.196500	0.652200
H101	H10	0.745300	0.140100	0.677400
H111	H11	0.780400	0.247800	0.685600
C111	C11	0.664900	0.180900	0.623400
Cu21	Cu2	0.682080	0.453220	0.509040
O51	O5	0.601600	0.462700	0.437600
O61	O6	0.593200	0.505500	0.329100
O71	O7	0.779700	0.446200	0.565000
O81	O8	0.866400	0.458400	0.657200
N21	N2	0.685500	0.554500	0.567700
H121	H12	0.643900	0.522000	0.607200
C121	C12	0.693100	0.627500	0.406900
C131	C13	0.748200	0.686400	0.352700
H131	H13	0.741300	0.662700	0.307700
C141	C14	0.814500	0.782200	0.366800
H141	H14	0.852600	0.820600	0.330900
C151	C15	0.823500	0.818900	0.430900
H151	H15	0.867000	0.882200	0.438900
C161	C16	0.768900	0.763300	0.484400
H161	H16	0.774300	0.789600	0.528300
C171	C17	0.704400	0.666500	0.473900
C181	C18	0.625500	0.525200	0.389700
C191	C19	0.647100	0.610000	0.535300
H171	H17	0.645300	0.652400	0.569800
H181	H18	0.582800	0.567500	0.520300
C201	C20	0.780700	0.615600	0.598700
H191	H19	0.782500	0.669700	0.621000
H201	H20	0.827900	0.638700	0.562100
C211	C21	0.803500	0.560700	0.652200
H211	H21	0.859900	0.605200	0.677400
H221	H22	0.752200	0.532600	0.685600
C221	C22	0.819100	0.484000	0.623400
Cu31	Cu3	0.546780	0.228860	0.509040
O91	O9	0.537300	0.138900	0.437600
O101	O10	0.494500	0.087700	0.329100
O111	O11	0.553800	0.333500	0.565000
O121	O12	0.541600	0.408000	0.657200
N31	N3	0.445500	0.131000	0.567700
H231	H23	0.478000	0.121900	0.607200
C231	C23	0.372500	0.065600	0.406900
C241	C24	0.313600	0.061800	0.352700
H241	H24	0.337300	0.078600	0.307700
C251	C25	0.217800	0.032300	0.366800
H251	H25	0.179400	0.032000	0.330900
C261	C26	0.181100	0.004600	0.430900
H261	H26	0.117800	0.984800	0.438900
C271	C27	0.236700	0.005600	0.484400
H271	H27	0.210400	0.984700	0.528300
C281	C28	0.333500	0.037900	0.473900
C291	C29	0.474800	0.100300	0.389700
C301	C30	0.390000	0.037100	0.535300
H281	H28	0.347600	0.992900	0.569800
H291	H29	0.432500	0.015300	0.520300
C311	C31	0.384400	0.165100	0.598700
H301	H30	0.330300	0.112800	0.621000
H311	H31	0.361300	0.189200	0.562100
C321	C32	0.439300	0.242800	0.652200
H321	H32	0.394800	0.254700	0.677400
H331	H33	0.467400	0.219600	0.685600
C331	C33	0.516000	0.335100	0.623400
Cu41	Cu4	0.228860	0.682080	0.009040
O131	O13	0.138900	0.601600	0.937600
O141	O14	0.087700	0.593200	0.829100
O151	O15	0.333500	0.779700	0.065000
O161	O16	0.408000	0.866400	0.157200
N41	N4	0.131000	0.685500	0.067700
H341	H34	0.121900	0.643900	0.107200
C341	C34	0.065600	0.693100	0.906900
C351	C35	0.061800	0.748200	0.852700
H351	H35	0.078600	0.741300	0.807700
C361	C36	0.032300	0.814500	0.866800
H361	H36	0.032000	0.852600	0.830900
C371	C37	0.004600	0.823500	0.930900
H371	H37	0.984800	0.867000	0.938900
C381	C38	0.005600	0.768900	0.984400
H381	H38	0.984700	0.774300	0.028300
C391	C39	0.037900	0.704400	0.973900
C401	C40	0.100300	0.625500	0.889700
C411	C41	0.037100	0.647100	0.035300
H391	H39	0.992900	0.645300	0.069800
H401	H40	0.015300	0.582800	0.020300
C421	C42	0.165100	0.780700	0.098700
H411	H41	0.112800	0.782500	0.121000
H421	H42	0.189200	0.827900	0.062100
C431	C43	0.242800	0.803500	0.152200
H431	H43	0.254700	0.859900	0.177400
H441	H44	0.219600	0.752200	0.185600
C441	C44	0.335100	0.819100	0.123400
Cu51	Cu5	0.317920	0.546780	0.009040
O171	O17	0.398400	0.537300	0.937600
O181	O18	0.406800	0.494500	0.829100
O191	O19	0.220300	0.553800	0.065000
O201	O20	0.133600	0.541600	0.157200
N51	N5	0.314500	0.445500	0.067700
H451	H45	0.356100	0.478000	0.107200
C451	C45	0.306900	0.372500	0.906900
C461	C46	0.251800	0.313600	0.852700
H461	H46	0.258700	0.337300	0.807700
C471	C47	0.185500	0.217800	0.866800
H471	H47	0.147400	0.179400	0.830900
C481	C48	0.176500	0.181100	0.930900
H481	H48	0.133000	0.117800	0.938900
C491	C49	0.231100	0.236700	0.984400
H491	H49	0.225700	0.210400	0.028300
C501	C50	0.295600	0.333500	0.973900
C511	C51	0.374500	0.474800	0.889700
C521	C52	0.352900	0.390000	0.035300
H501	H50	0.354700	0.347600	0.069800
H511	H51	0.417200	0.432500	0.020300
C531	C53	0.219300	0.384400	0.098700
H521	H52	0.217500	0.330300	0.121000
H531	H53	0.172100	0.361300	0.062100
C541	C54	0.196500	0.439300	0.152200
H541	H54	0.140100	0.394800	0.177400
H551	H55	0.247800	0.467400	0.185600
C551	C55	0.180900	0.516000	0.123400
Cu61	Cu6	0.453220	0.771140	0.009040
O211	O21	0.462700	0.861100	0.937600
O221	O22	0.505500	0.912300	0.829100
O231	O23	0.446200	0.666500	0.065000
O241	O24	0.458400	0.592000	0.157200
N61	N6	0.554500	0.869000	0.067700
H561	H56	0.522000	0.878100	0.107200
C561	C56	0.627500	0.934400	0.906900
C571	C57	0.686400	0.938200	0.852700
H571	H57	0.662700	0.921400	0.807700
C581	C58	0.782200	0.967700	0.866800
H581	H58	0.820600	0.968000	0.830900
C591	C59	0.818900	0.995400	0.930900
H591	H59	0.882200	0.015200	0.938900
C601	C60	0.763300	0.994400	0.984400
H601	H60	0.789600	0.015300	0.028300
C611	C61	0.666500	0.962100	0.973900
C621	C62	0.525200	0.899700	0.889700
C631	C63	0.610000	0.962900	0.035300
H611	H61	0.652400	0.007100	0.069800
H621	H62	0.567500	0.984700	0.020300
C641	C64	0.615600	0.834900	0.098700
H631	H63	0.669700	0.887200	0.121000
H641	H64	0.638700	0.810800	0.062100
C651	C65	0.560700	0.757200	0.152200
H651	H65	0.605200	0.745300	0.177400
H661	H66	0.532600	0.780400	0.185600
C661	C66	0.484000	0.664900	0.123400
Cu71	Cu7	0.228860	0.682080	0.490960
O251	O25	0.138900	0.601600	0.562400
O261	O26	0.087700	0.593200	0.670900
O271	O27	0.333500	0.779700	0.435000
O281	O28	0.408000	0.866400	0.342800
N71	N7	0.131000	0.685500	0.432300
H671	H67	0.121900	0.643900	0.392800
C671	C67	0.065600	0.693100	0.593100
C681	C68	0.061800	0.748200	0.647300
H681	H68	0.078600	0.741300	0.692300
C691	C69	0.032300	0.814500	0.633200
H691	H69	0.032000	0.852600	0.669100
C701	C70	0.004600	0.823500	0.569100
H701	H70	0.984800	0.867000	0.561100
C711	C71	0.005600	0.768900	0.515600
H711	H71	0.984700	0.774300	0.471700
C721	C72	0.037900	0.704400	0.526100
C731	C73	0.100300	0.625500	0.610300
C741	C74	0.037100	0.647100	0.464700
H721	H72	0.992900	0.645300	0.430200
H731	H73	0.015300	0.582800	0.479700
C751	C75	0.165100	0.780700	0.401300
H741	H74	0.112800	0.782500	0.379000
H751	H75	0.189200	0.827900	0.437900
C761	C76	0.242800	0.803500	0.347800
H761	H76	0.254700	0.859900	0.322600
H771	H77	0.219600	0.752200	0.314400
C771	C77	0.335100	0.819100	0.376600
Cu81	Cu8	0.317920	0.546780	0.490960
O291	O29	0.398400	0.537300	0.562400
O301	O30	0.406800	0.494500	0.670900
O311	O31	0.220300	0.553800	0.435000
O321	O32	0.133600	0.541600	0.342800
N81	N8	0.314500	0.445500	0.432300
H781	H78	0.356100	0.478000	0.392800
C781	C78	0.306900	0.372500	0.593100
C791	C79	0.251800	0.313600	0.647300
H791	H79	0.258700	0.337300	0.692300
C801	C80	0.185500	0.217800	0.633200
H801	H80	0.147400	0.179400	0.669100
C811	C81	0.176500	0.181100	0.569100
H811	H81	0.133000	0.117800	0.561100
C821	C82	0.231100	0.236700	0.515600
H821	H82	0.225700	0.210400	0.471700
C831	C83	0.295600	0.333500	0.526100
C841	C84	0.374500	0.474800	0.610300
C851	C85	0.352900	0.390000	0.464700
H831	H83	0.354700	0.347600	0.430200
H841	H84	0.417200	0.432500	0.479700
C861	C86	0.219300	0.384400	0.401300
H851	H85	0.217500	0.330300	0.379000
H861	H86	0.172100	0.361300	0.437900
C871	C87	0.196500	0.439300	0.347800
H871	H87	0.140100	0.394800	0.322600
H881	H88	0.247800	0.467400	0.314400
C881	C88	0.180900	0.516000	0.376600
Cu91	Cu9	0.453220	0.771140	0.490960
O331	O33	0.462700	0.861100	0.562400
O341	O34	0.505500	0.912300	0.670900
O351	O35	0.446200	0.666500	0.435000
O361	O36	0.458400	0.592000	0.342800
N91	N9	0.554500	0.869000	0.432300
H891	H89	0.522000	0.878100	0.392800
C891	C89	0.627500	0.934400	0.593100
C901	C90	0.686400	0.938200	0.647300
H901	H90	0.662700	0.921400	0.692300
C911	C91	0.782200	0.967700	0.633200
H911	H91	0.820600	0.968000	0.669100
C921	C92	0.818900	0.995400	0.569100
H921	H92	0.882200	0.015200	0.561100
C931	C93	0.763300	0.994400	0.515600
H931	H93	0.789600	0.015300	0.471700
C941	C94	0.666500	0.962100	0.526100
C951	C95	0.525200	0.899700	0.610300
C961	C96	0.610000	0.962900	0.464700
H941	H94	0.652400	0.007100	0.430200
H951	H95	0.567500	0.984700	0.479700
C971	C97	0.615600	0.834900	0.401300
H961	H96	0.669700	0.887200	0.379000
H971	H97	0.638700	0.810800	0.437900
C981	C98	0.560700	0.757200	0.347800
H981	H98	0.605200	0.745300	0.322600
H991	H99	0.532600	0.780400	0.314400
C991	C99	0.484000	0.664900	0.376600
Cu101	Cu10	0.771140	0.317920	0.990960
O371	O37	0.861100	0.398400	0.062400
O381	O38	0.912300	0.406800	0.170900
O391	O39	0.666500	0.220300	0.935000
O401	O40	0.592000	0.133600	0.842800
N101	N10	0.869000	0.314500	0.932300
H1001	H100	0.878100	0.356100	0.892800
C1001	C100	0.934400	0.306900	0.093100
C1011	C101	0.938200	0.251800	0.147300
H1011	H101	0.921400	0.258700	0.192300
C1021	C102	0.967700	0.185500	0.133200
H1021	H102	0.968000	0.147400	0.169100
C1031	C103	0.995400	0.176500	0.069100
H1031	H103	0.015200	0.133000	0.061100
C1041	C104	0.994400	0.231100	0.015600
H1041	H104	0.015300	0.225700	0.971700
C1051	C105	0.962100	0.295600	0.026100
C1061	C106	0.899700	0.374500	0.110300
C1071	C107	0.962900	0.352900	0.964700
H1051	H105	0.007100	0.354700	0.930200
H1061	H106	0.984700	0.417200	0.979700
C1081	C108	0.834900	0.219300	0.901300
H1071	H107	0.887200	0.217500	0.879000
H1081	H108	0.810800	0.172100	0.937900
C1091	C109	0.757200	0.196500	0.847800
H1091	H109	0.745300	0.140100	0.822600
H1101	H110	0.780400	0.247800	0.814400
C1101	C110	0.664900	0.180900	0.876600
Cu111	Cu11	0.682080	0.453220	0.990960
O411	O41	0.601600	0.462700	0.062400
O421	O42	0.593200	0.505500	0.170900
O431	O43	0.779700	0.446200	0.935000
O441	O44	0.866400	0.458400	0.842800
N111	N11	0.685500	0.554500	0.932300
H1111	H111	0.643900	0.522000	0.892800
C1111	C111	0.693100	0.627500	0.093100
C1121	C112	0.748200	0.686400	0.147300
H1121	H112	0.741300	0.662700	0.192300
C1131	C113	0.814500	0.782200	0.133200
H1131	H113	0.852600	0.820600	0.169100
C1141	C114	0.823500	0.818900	0.069100
H1141	H114	0.867000	0.882200	0.061100
C1151	C115	0.768900	0.763300	0.015600
H1151	H115	0.774300	0.789600	0.971700
C1161	C116	0.704400	0.666500	0.026100
C1171	C117	0.625500	0.525200	0.110300
C1181	C118	0.647100	0.610000	0.964700
H1161	H116	0.645300	0.652400	0.930200
H1171	H117	0.582800	0.567500	0.979700
C1191	C119	0.780700	0.615600	0.901300
H1181	H118	0.782500	0.669700	0.879000
H1191	H119	0.827900	0.638700	0.937900
C1201	C120	0.803500	0.560700	0.847800
H1201	H120	0.859900	0.605200	0.822600
H1211	H121	0.752200	0.532600	0.814400
C1211	C121	0.819100	0.484000	0.876600
Cu121	Cu12	0.546780	0.228860	0.990960
O451	O45	0.537300	0.138900	0.062400
O461	O46	0.494500	0.087700	0.170900
O471	O47	0.553800	0.333500	0.935000
O481	O48	0.541600	0.408000	0.842800
N121	N12	0.445500	0.131000	0.932300
H1221	H122	0.478000	0.121900	0.892800
C1221	C122	0.372500	0.065600	0.093100
C1231	C123	0.313600	0.061800	0.147300
H1231	H123	0.337300	0.078600	0.192300
C1241	C124	0.217800	0.032300	0.133200
H1241	H124	0.179400	0.032000	0.169100
C1251	C125	0.181100	0.004600	0.069100
H1251	H125	0.117800	0.984800	0.061100
C1261	C126	0.236700	0.005600	0.015600
H1261	H126	0.210400	0.984700	0.971700
C1271	C127	0.333500	0.037900	0.026100
C1281	C128	0.474800	0.100300	0.110300
C1291	C129	0.390000	0.037100	0.964700
H1271	H127	0.347600	0.992900	0.930200
H1281	H128	0.432500	0.015300	0.979700
C1301	C130	0.384400	0.165100	0.901300
H1291	H129	0.330300	0.112800	0.879000
H1301	H130	0.361300	0.189200	0.937900
C1311	C131	0.439300	0.242800	0.847800
H1311	H131	0.394800	0.254700	0.822600
H1321	H132	0.467400	0.219600	0.814400
C1321	C132	0.516000	0.335100	0.876600
Na11	Na1	0.531000	0.030100	0.750000
Na21	Na2	0.969900	0.500900	0.750000
Na31	Na3	0.499100	0.469000	0.750000
Na41	Na4	0.469000	0.969900	0.250000
Na51	Na5	0.030100	0.499100	0.250000
Na61	Na6	0.500900	0.531000	0.250000
O491	O49	0.666670	0.333330	0.467000
H1331	H133	0.666670	0.333330	0.415900
O501	O50	0.333330	0.666670	0.967000
H1341	H134	0.333330	0.666670	0.915900
O511	O51	0.333330	0.666670	0.533000
H1351	H135	0.333330	0.666670	0.584100
O521	O52	0.666670	0.333330	0.033000
H1361	H136	0.666670	0.333330	0.084100
