data_YUMFUJ_clean_PM
_symmetry_space_group_name_H-M	'P1'
_cell_length_a	33.400000
_cell_length_b	13.878700
_cell_length_c	13.579000
_cell_angle_alpha	90.000000
_cell_angle_beta	104.966000
_cell_angle_gamma	90.000000
_symmetry_Int_Tables_number 1

loop_
_symmetry_equiv_pos_as_xyz
'x,y,z'

loop_
_atom_site_label
_atom_site_type_symbol
_atom_site_fract_x
_atom_site_fract_y
_atom_site_fract_z
La11	La1	0.812080	0.212600	0.561370
O11	O1	0.768050	0.179530	0.682320
O21	O2	0.706670	0.251920	0.625860
O31	O3	0.733520	0.856480	0.967320
O41	O4	0.787870	0.945980	0.967500
O51	O5	0.366440	0.170890	0.020880
O61	O6	0.380190	0.326050	0.017090
C11	C1	0.426110	0.216840	0.966480
C21	C2	0.455670	0.287860	0.968610
C31	C3	0.491270	0.266420	0.937940
C41	C4	0.497320	0.173970	0.905130
C51	C5	0.467760	0.102950	0.903000
C61	C6	0.432160	0.124390	0.933670
C71	C7	0.536650	0.150920	0.875720
C81	C8	0.560450	0.222270	0.845130
C91	C9	0.598370	0.201770	0.826530
C101	C10	0.614070	0.107650	0.836730
C111	C11	0.589990	0.034370	0.860930
C121	C12	0.551880	0.055540	0.881760
C131	C13	0.656390	0.089900	0.825100
C141	C14	0.672990	0.145930	0.760860
C151	C15	0.714070	0.135670	0.756040
C161	C16	0.739190	0.067260	0.818050
C171	C17	0.722590	0.007720	0.879220
C181	C18	0.681270	0.016750	0.883140
C191	C19	0.730970	0.194000	0.681600
C201	C20	0.749940	0.932400	0.942900
C211	C21	0.388510	0.238300	0.004500
La21	La2	0.312080	0.712600	0.561370
O71	O7	0.268050	0.679530	0.682320
O81	O8	0.206670	0.751920	0.625860
O91	O9	0.233520	0.356480	0.967320
O101	O10	0.287870	0.445980	0.967500
O111	O11	0.866440	0.670890	0.020880
O121	O12	0.880190	0.826050	0.017090
C221	C22	0.926110	0.716840	0.966480
C231	C23	0.955670	0.787860	0.968610
C241	C24	0.991270	0.766420	0.937940
C251	C25	0.997320	0.673970	0.905130
C261	C26	0.967760	0.602950	0.903000
C271	C27	0.932160	0.624390	0.933670
C281	C28	0.036650	0.650920	0.875720
C291	C29	0.060450	0.722270	0.845130
C301	C30	0.098370	0.701770	0.826530
C311	C31	0.114070	0.607650	0.836730
C321	C32	0.089990	0.534370	0.860930
C331	C33	0.051880	0.555540	0.881760
C341	C34	0.156390	0.589900	0.825100
C351	C35	0.172990	0.645930	0.760860
C361	C36	0.214070	0.635670	0.756040
C371	C37	0.239190	0.567260	0.818050
C381	C38	0.222590	0.507720	0.879220
C391	C39	0.181270	0.516750	0.883140
C401	C40	0.230970	0.694000	0.681600
C411	C41	0.249940	0.432400	0.942900
C421	C42	0.888510	0.738300	0.004500
La31	La3	0.187920	0.212600	0.938630
O131	O13	0.231950	0.179530	0.817680
O141	O14	0.293330	0.251920	0.874140
O151	O15	0.266480	0.856480	0.532680
O161	O16	0.212130	0.945980	0.532500
O171	O17	0.633560	0.170890	0.479120
O181	O18	0.619810	0.326050	0.482910
C431	C43	0.573890	0.216840	0.533520
C441	C44	0.544330	0.287860	0.531390
C451	C45	0.508730	0.266420	0.562060
C461	C46	0.502680	0.173970	0.594870
C471	C47	0.532240	0.102950	0.597000
C481	C48	0.567840	0.124390	0.566330
C491	C49	0.463350	0.150920	0.624280
C501	C50	0.439550	0.222270	0.654870
C511	C51	0.401630	0.201770	0.673470
C521	C52	0.385930	0.107650	0.663270
C531	C53	0.410010	0.034370	0.639070
C541	C54	0.448120	0.055540	0.618240
C551	C55	0.343610	0.089900	0.674900
C561	C56	0.327010	0.145930	0.739140
C571	C57	0.285930	0.135670	0.743960
C581	C58	0.260810	0.067260	0.681950
C591	C59	0.277410	0.007720	0.620780
C601	C60	0.318730	0.016750	0.616860
C611	C61	0.269030	0.194000	0.818400
C621	C62	0.250060	0.932400	0.557100
C631	C63	0.611490	0.238300	0.495500
La41	La4	0.687920	0.712600	0.938630
O191	O19	0.731950	0.679530	0.817680
O201	O20	0.793330	0.751920	0.874140
O211	O21	0.766480	0.356480	0.532680
O221	O22	0.712130	0.445980	0.532500
O231	O23	0.133560	0.670890	0.479120
O241	O24	0.119810	0.826050	0.482910
C641	C64	0.073890	0.716840	0.533520
C651	C65	0.044330	0.787860	0.531390
C661	C66	0.008730	0.766420	0.562060
C671	C67	0.002680	0.673970	0.594870
C681	C68	0.032240	0.602950	0.597000
C691	C69	0.067840	0.624390	0.566330
C701	C70	0.963350	0.650920	0.624280
C711	C71	0.939550	0.722270	0.654870
C721	C72	0.901630	0.701770	0.673470
C731	C73	0.885930	0.607650	0.663270
C741	C74	0.910010	0.534370	0.639070
C751	C75	0.948120	0.555540	0.618240
C761	C76	0.843610	0.589900	0.674900
C771	C77	0.827010	0.645930	0.739140
C781	C78	0.785930	0.635670	0.743960
C791	C79	0.760810	0.567260	0.681950
C801	C80	0.777410	0.507720	0.620780
C811	C81	0.818730	0.516750	0.616860
C821	C82	0.769030	0.694000	0.818400
C831	C83	0.750060	0.432400	0.557100
C841	C84	0.111490	0.738300	0.495500
La51	La5	0.187920	0.787400	0.438630
O251	O25	0.231950	0.820470	0.317680
O261	O26	0.293330	0.748080	0.374140
O271	O27	0.266480	0.143520	0.032680
O281	O28	0.212130	0.054020	0.032500
O291	O29	0.633560	0.829110	0.979120
O301	O30	0.619810	0.673950	0.982910
C851	C85	0.573890	0.783160	0.033520
C861	C86	0.544330	0.712140	0.031390
C871	C87	0.508730	0.733580	0.062060
C881	C88	0.502680	0.826030	0.094870
C891	C89	0.532240	0.897050	0.097000
C901	C90	0.567840	0.875610	0.066330
C911	C91	0.463350	0.849080	0.124280
C921	C92	0.439550	0.777730	0.154870
C931	C93	0.401630	0.798230	0.173470
C941	C94	0.385930	0.892350	0.163270
C951	C95	0.410010	0.965630	0.139070
C961	C96	0.448120	0.944460	0.118240
C971	C97	0.343610	0.910100	0.174900
C981	C98	0.327010	0.854070	0.239140
C991	C99	0.285930	0.864330	0.243960
C1001	C100	0.260810	0.932740	0.181950
C1011	C101	0.277410	0.992280	0.120780
C1021	C102	0.318730	0.983250	0.116860
C1031	C103	0.269030	0.806000	0.318400
C1041	C104	0.250060	0.067600	0.057100
C1051	C105	0.611490	0.761700	0.995500
La61	La6	0.687920	0.287400	0.438630
O311	O31	0.731950	0.320470	0.317680
O321	O32	0.793330	0.248080	0.374140
O331	O33	0.766480	0.643520	0.032680
O341	O34	0.712130	0.554020	0.032500
O351	O35	0.133560	0.329110	0.979120
O361	O36	0.119810	0.173950	0.982910
C1061	C106	0.073890	0.283160	0.033520
C1071	C107	0.044330	0.212140	0.031390
C1081	C108	0.008730	0.233580	0.062060
C1091	C109	0.002680	0.326030	0.094870
C1101	C110	0.032240	0.397050	0.097000
C1111	C111	0.067840	0.375610	0.066330
C1121	C112	0.963350	0.349080	0.124280
C1131	C113	0.939550	0.277730	0.154870
C1141	C114	0.901630	0.298230	0.173470
C1151	C115	0.885930	0.392350	0.163270
C1161	C116	0.910010	0.465630	0.139070
C1171	C117	0.948120	0.444460	0.118240
C1181	C118	0.843610	0.410100	0.174900
C1191	C119	0.827010	0.354070	0.239140
C1201	C120	0.785930	0.364330	0.243960
C1211	C121	0.760810	0.432740	0.181950
C1221	C122	0.777410	0.492280	0.120780
C1231	C123	0.818730	0.483250	0.116860
C1241	C124	0.769030	0.306000	0.318400
C1251	C125	0.750060	0.567600	0.057100
C1261	C126	0.111490	0.261700	0.995500
La71	La7	0.812080	0.787400	0.061370
O371	O37	0.768050	0.820470	0.182320
O381	O38	0.706670	0.748080	0.125860
O391	O39	0.733520	0.143520	0.467320
O401	O40	0.787870	0.054020	0.467500
O411	O41	0.366440	0.829110	0.520880
O421	O42	0.380190	0.673950	0.517090
C1271	C127	0.426110	0.783160	0.466480
C1281	C128	0.455670	0.712140	0.468610
C1291	C129	0.491270	0.733580	0.437940
C1301	C130	0.497320	0.826030	0.405130
C1311	C131	0.467760	0.897050	0.403000
C1321	C132	0.432160	0.875610	0.433670
C1331	C133	0.536650	0.849080	0.375720
C1341	C134	0.560450	0.777730	0.345130
C1351	C135	0.598370	0.798230	0.326530
C1361	C136	0.614070	0.892350	0.336730
C1371	C137	0.589990	0.965630	0.360930
C1381	C138	0.551880	0.944460	0.381760
C1391	C139	0.656390	0.910100	0.325100
C1401	C140	0.672990	0.854070	0.260860
C1411	C141	0.714070	0.864330	0.256040
C1421	C142	0.739190	0.932740	0.318050
C1431	C143	0.722590	0.992280	0.379220
C1441	C144	0.681270	0.983250	0.383140
C1451	C145	0.730970	0.806000	0.181600
C1461	C146	0.749940	0.067600	0.442900
C1471	C147	0.388510	0.761700	0.504500
La81	La8	0.312080	0.287400	0.061370
O431	O43	0.268050	0.320470	0.182320
O441	O44	0.206670	0.248080	0.125860
O451	O45	0.233520	0.643520	0.467320
O461	O46	0.287870	0.554020	0.467500
O471	O47	0.866440	0.329110	0.520880
O481	O48	0.880190	0.173950	0.517090
C1481	C148	0.926110	0.283160	0.466480
C1491	C149	0.955670	0.212140	0.468610
C1501	C150	0.991270	0.233580	0.437940
C1511	C151	0.997320	0.326030	0.405130
C1521	C152	0.967760	0.397050	0.403000
C1531	C153	0.932160	0.375610	0.433670
C1541	C154	0.036650	0.349080	0.375720
C1551	C155	0.060450	0.277730	0.345130
C1561	C156	0.098370	0.298230	0.326530
C1571	C157	0.114070	0.392350	0.336730
C1581	C158	0.089990	0.465630	0.360930
C1591	C159	0.051880	0.444460	0.381760
C1601	C160	0.156390	0.410100	0.325100
C1611	C161	0.172990	0.354070	0.260860
C1621	C162	0.214070	0.364330	0.256040
C1631	C163	0.239190	0.432740	0.318050
C1641	C164	0.222590	0.492280	0.379220
C1651	C165	0.181270	0.483250	0.383140
C1661	C166	0.230970	0.306000	0.181600
C1671	C167	0.249940	0.567600	0.442900
C1681	C168	0.888510	0.261700	0.504500
