data_YUNJIB_clean_PM
_symmetry_space_group_name_H-M	'P1'
_cell_length_a	6.591000
_cell_length_b	11.078000
_cell_length_c	15.408000
_cell_angle_alpha	90.000000
_cell_angle_beta	90.000000
_cell_angle_gamma	90.000000
_symmetry_Int_Tables_number 1

loop_
_symmetry_equiv_pos_as_xyz
'x,y,z'

loop_
_atom_site_label
_atom_site_type_symbol
_atom_site_fract_x
_atom_site_fract_y
_atom_site_fract_z
Cu11	Cu1	0.750000	0.726010	0.992640
O11	O1	0.009200	0.752000	0.938800
H11	H1	0.018300	0.754100	0.878600
N11	N1	0.105300	0.688100	0.105200
N21	N2	0.900700	0.666900	0.098300
N31	N3	0.996300	0.621100	0.229000
N41	N4	0.877800	0.458300	0.431900
C11	C1	0.841000	0.626700	0.173400
H21	H2	0.708400	0.604900	0.186600
C21	C2	0.159800	0.662200	0.184300
H31	H3	0.290100	0.670500	0.206600
C31	C3	0.990500	0.589800	0.320700
C41	C4	0.104000	0.656400	0.378000
H41	H4	0.181400	0.721700	0.359400
C51	C5	0.100000	0.623000	0.463100
H51	H5	0.168900	0.667800	0.504700
C61	C6	0.989000	0.520300	0.486800
H61	H6	0.995300	0.494600	0.544200
C71	C7	0.881900	0.492600	0.348400
H71	H7	0.807900	0.448500	0.308000
Cu21	Cu2	0.250000	0.773990	0.007360
O21	O2	0.509200	0.748000	0.061200
H81	H8	0.518300	0.745900	0.121400
N51	N5	0.605300	0.811900	0.894800
N61	N6	0.400700	0.833100	0.901700
N71	N7	0.496300	0.878900	0.771000
N81	N8	0.377800	0.041700	0.568100
C81	C8	0.341000	0.873300	0.826600
H91	H9	0.208400	0.895100	0.813400
C91	C9	0.659800	0.837800	0.815700
H101	H10	0.790100	0.829500	0.793400
C101	C10	0.490500	0.910200	0.679300
C111	C11	0.604000	0.843600	0.622000
H111	H11	0.681400	0.778300	0.640600
C121	C12	0.600000	0.877000	0.536900
H121	H12	0.668900	0.832200	0.495300
C131	C13	0.489000	0.979700	0.513200
H131	H13	0.495300	0.005400	0.455800
C141	C14	0.381900	0.007400	0.651600
H141	H14	0.307900	0.051500	0.692000
Cu31	Cu3	0.750000	0.273990	0.492640
O31	O3	0.490800	0.248000	0.438800
H151	H15	0.481700	0.245900	0.378600
N91	N9	0.394700	0.311900	0.605200
N101	N10	0.599300	0.333100	0.598300
N111	N11	0.503700	0.378900	0.729000
N121	N12	0.622200	0.541700	0.931900
C151	C15	0.659000	0.373300	0.673400
H161	H16	0.791600	0.395100	0.686600
C161	C16	0.340200	0.337800	0.684300
H171	H17	0.209900	0.329500	0.706600
C171	C17	0.509500	0.410200	0.820700
C181	C18	0.396000	0.343600	0.878000
H181	H18	0.318600	0.278300	0.859400
C191	C19	0.400000	0.377000	0.963100
H191	H19	0.331100	0.332200	0.004700
C201	C20	0.511000	0.479700	0.986800
H201	H20	0.504700	0.505400	0.044200
C211	C21	0.618100	0.507400	0.848400
H211	H21	0.692100	0.551500	0.808000
Cu41	Cu4	0.250000	0.226010	0.507360
O41	O4	0.990800	0.252000	0.561200
H221	H22	0.981700	0.254100	0.621400
N131	N13	0.894700	0.188100	0.394800
N141	N14	0.099300	0.166900	0.401700
N151	N15	0.003700	0.121100	0.271000
N161	N16	0.122200	0.958300	0.068100
C221	C22	0.159000	0.126700	0.326600
H231	H23	0.291600	0.104900	0.313400
C231	C23	0.840200	0.162200	0.315700
H241	H24	0.709900	0.170500	0.293400
C241	C24	0.009500	0.089800	0.179300
C251	C25	0.896000	0.156400	0.122000
H251	H25	0.818600	0.221700	0.140600
C261	C26	0.900000	0.123000	0.036900
H261	H26	0.831100	0.167800	0.995300
C271	C27	0.011000	0.020300	0.013200
H271	H27	0.004700	0.994600	0.955800
C281	C28	0.118100	0.992600	0.151600
H281	H28	0.192100	0.948500	0.192000
