data_YUNJEX_clean_PM
_symmetry_space_group_name_H-M	'P1'
_cell_length_a	6.741800
_cell_length_b	12.143000
_cell_length_c	13.040000
_cell_angle_alpha	90.000000
_cell_angle_beta	90.000000
_cell_angle_gamma	90.000000
_symmetry_Int_Tables_number 1

loop_
_symmetry_equiv_pos_as_xyz
'x,y,z'

loop_
_atom_site_label
_atom_site_type_symbol
_atom_site_fract_x
_atom_site_fract_y
_atom_site_fract_z
N11	N1	0.479100	0.723000	0.630000
N21	N2	0.681700	0.721400	0.630800
C11	C1	0.419400	0.687900	0.719200
C21	C2	0.737400	0.685300	0.720200
N31	N3	0.578200	0.663600	0.778200
Cu11	Cu1	0.332650	0.761420	0.501200
C31	C3	0.557900	0.681400	0.964900
H11	H1	0.543400	0.757300	0.959100
C41	C4	0.559100	0.629900	0.059500
H21	H2	0.539700	0.670300	0.119300
C51	C5	0.589300	0.518400	0.063500
H31	H3	0.593700	0.485200	0.127700
C61	C6	0.605900	0.504400	0.890100
H41	H4	0.619800	0.461800	0.831200
C71	C7	0.578900	0.615600	0.879600
H51	H5	0.867500	0.676100	0.741100
H61	H6	0.287200	0.680800	0.739400
N41	N4	0.613000	0.454500	0.981100
O11	O1	0.581200	0.747900	0.426200
H71	H7	0.571000	0.690000	0.391000
N51	N5	0.979100	0.777000	0.370000
N61	N6	0.181700	0.778600	0.369200
C81	C8	0.919400	0.812100	0.280800
C91	C9	0.237400	0.814700	0.279800
N71	N7	0.078200	0.836400	0.221800
Cu21	Cu2	0.832650	0.738580	0.498800
C101	C10	0.057900	0.818600	0.035100
H81	H8	0.043400	0.742700	0.040900
C111	C11	0.059100	0.870100	0.940500
H91	H9	0.039700	0.829700	0.880700
C121	C12	0.089300	0.981600	0.936500
H101	H10	0.093700	0.014800	0.872300
C131	C13	0.105900	0.995600	0.109900
H111	H11	0.119800	0.038200	0.168800
C141	C14	0.078900	0.884400	0.120400
H121	H12	0.367500	0.823900	0.258900
H131	H13	0.787200	0.819200	0.260600
N81	N8	0.113000	0.045500	0.018900
O21	O2	0.081200	0.752100	0.573800
H141	H14	0.071000	0.810000	0.609000
N91	N9	0.020900	0.277000	0.130000
N101	N10	0.818300	0.278600	0.130800
C151	C15	0.080600	0.312100	0.219200
C161	C16	0.762600	0.314700	0.220200
N111	N11	0.921800	0.336400	0.278200
Cu31	Cu3	0.167350	0.238580	0.001200
C171	C17	0.942100	0.318600	0.464900
H151	H15	0.956600	0.242700	0.459100
C181	C18	0.940900	0.370100	0.559500
H161	H16	0.960300	0.329700	0.619300
C191	C19	0.910700	0.481600	0.563500
H171	H17	0.906300	0.514800	0.627700
C201	C20	0.894100	0.495600	0.390100
H181	H18	0.880200	0.538200	0.331200
C211	C21	0.921100	0.384400	0.379600
H191	H19	0.632500	0.323900	0.241100
H201	H20	0.212800	0.319200	0.239400
N121	N12	0.887000	0.545500	0.481100
O31	O3	0.918800	0.252100	0.926200
H211	H21	0.929000	0.310000	0.891000
N131	N13	0.520900	0.223000	0.870000
N141	N14	0.318300	0.221400	0.869200
C221	C22	0.580600	0.187900	0.780800
C231	C23	0.262600	0.185300	0.779800
N151	N15	0.421800	0.163600	0.721800
Cu41	Cu4	0.667350	0.261420	0.998800
C241	C24	0.442100	0.181400	0.535100
H221	H22	0.456600	0.257300	0.540900
C251	C25	0.440900	0.129900	0.440500
H231	H23	0.460300	0.170300	0.380700
C261	C26	0.410700	0.018400	0.436500
H241	H24	0.406300	0.985200	0.372300
C271	C27	0.394100	0.004400	0.609900
H251	H25	0.380200	0.961800	0.668800
C281	C28	0.421100	0.115600	0.620400
H261	H26	0.132500	0.176100	0.758900
H271	H27	0.712800	0.180800	0.760600
N161	N16	0.387000	0.954500	0.518900
O41	O4	0.418800	0.247900	0.073800
H281	H28	0.429000	0.190000	0.109000
