data_YUNJUO_clean_PM
_symmetry_space_group_name_H-M	'P1'
_cell_length_a	5.181200
_cell_length_b	10.742000
_cell_length_c	15.122400
_cell_angle_alpha	82.466000
_cell_angle_beta	84.928000
_cell_angle_gamma	82.691000
_symmetry_Int_Tables_number 1

loop_
_symmetry_equiv_pos_as_xyz
'x,y,z'

loop_
_atom_site_label
_atom_site_type_symbol
_atom_site_fract_x
_atom_site_fract_y
_atom_site_fract_z
C11	C1	0.984200	0.629700	0.485410
H11	H1	0.971800	0.719300	0.475500
C21	C2	0.085700	0.567300	0.564240
C31	C3	0.099700	0.434800	0.579330
C41	C4	0.189700	0.359800	0.663710
C51	C5	0.416000	0.273600	0.662230
H21	H2	0.508500	0.258900	0.606800
C61	C6	0.506000	0.209300	0.741460
H31	H3	0.663600	0.153500	0.740200
C71	C7	0.133700	0.308300	0.824340
H41	H4	0.033700	0.317800	0.879300
C81	C8	0.049600	0.375800	0.745070
H51	H5	0.894600	0.433500	0.746500
C91	C9	0.366000	0.226400	0.822810
C101	C10	0.467400	0.160100	0.908910
C111	C11	0.173400	0.643100	0.630300
C121	C12	0.401600	0.603500	0.672800
H61	H6	0.513400	0.532100	0.655800
C131	C13	0.467600	0.667700	0.740000
H71	H7	0.623000	0.639500	0.769400
C141	C14	0.305400	0.773800	0.764330
C151	C15	0.082800	0.817500	0.718690
H81	H8	0.974500	0.891000	0.733800
C161	C16	0.019800	0.753400	0.651310
H91	H9	0.871000	0.784700	0.619100
C171	C17	0.359100	0.835400	0.842310
O11	O1	0.300500	0.148120	0.976720
O21	O2	0.703700	0.123300	0.910430
O31	O3	0.198400	0.914300	0.874530
O41	O4	0.587200	0.797400	0.872510
H101	H10	0.605400	0.835600	0.916200
C181	C18	0.015800	0.370300	0.514590
H111	H11	0.028200	0.280700	0.524500
C191	C19	0.914300	0.432700	0.435760
C201	C20	0.900300	0.565200	0.420670
C211	C21	0.810300	0.640200	0.336290
C221	C22	0.584000	0.726400	0.337770
H121	H12	0.491500	0.741100	0.393200
C231	C23	0.494000	0.790700	0.258540
H131	H13	0.336400	0.846500	0.259800
C241	C24	0.866300	0.691700	0.175660
H141	H14	0.966300	0.682200	0.120700
C251	C25	0.950400	0.624200	0.254930
H151	H15	0.105400	0.566500	0.253500
C261	C26	0.634000	0.773600	0.177190
C271	C27	0.532600	0.839900	0.091090
C281	C28	0.826600	0.356900	0.369700
C291	C29	0.598400	0.396500	0.327200
H161	H16	0.486600	0.467900	0.344200
C301	C30	0.532400	0.332300	0.260000
H171	H17	0.377000	0.360500	0.230600
C311	C31	0.694600	0.226200	0.235670
C321	C32	0.917200	0.182500	0.281310
H181	H18	0.025500	0.109000	0.266200
C331	C33	0.980200	0.246600	0.348690
H191	H19	0.129000	0.215300	0.380900
C341	C34	0.640900	0.164600	0.157690
O51	O5	0.699500	0.851880	0.023280
O61	O6	0.296300	0.876700	0.089570
O71	O7	0.801600	0.085700	0.125470
O81	O8	0.412800	0.202600	0.127490
H201	H20	0.394600	0.164400	0.083800
Ca11	Ca1	0.000000	0.000000	0.000000
