data_YUNKAV_clean_PM
_symmetry_space_group_name_H-M	'P1'
_cell_length_a	5.116100
_cell_length_b	10.823900
_cell_length_c	15.259800
_cell_angle_alpha	82.990000
_cell_angle_beta	85.885000
_cell_angle_gamma	83.050000
_symmetry_Int_Tables_number 1

loop_
_symmetry_equiv_pos_as_xyz
'x,y,z'

loop_
_atom_site_label
_atom_site_type_symbol
_atom_site_fract_x
_atom_site_fract_y
_atom_site_fract_z
C11	C1	0.983400	0.628760	0.488890
H11	H1	0.970800	0.717700	0.481300
C21	C2	0.082300	0.564120	0.566940
C31	C3	0.097300	0.432250	0.578180
C41	C4	0.185800	0.354820	0.661150
C51	C5	0.410900	0.268330	0.659180
H21	H2	0.502500	0.254000	0.604300
C61	C6	0.501700	0.202820	0.737730
H31	H3	0.658600	0.146200	0.736400
C71	C7	0.363500	0.220070	0.817850
C81	C8	0.132000	0.302110	0.819460
H41	H4	0.032500	0.311300	0.873700
C91	C9	0.046300	0.370620	0.741610
H51	H5	0.891500	0.428600	0.743300
C101	C10	0.467400	0.154520	0.903240
C111	C11	0.168400	0.636970	0.635470
C121	C12	0.397900	0.595650	0.679270
H61	H6	0.510000	0.525100	0.662100
C131	C13	0.463500	0.656800	0.747650
H71	H7	0.619600	0.627700	0.777600
C141	C14	0.300800	0.761370	0.772770
C151	C15	0.077900	0.807040	0.726280
H81	H8	0.970500	0.880100	0.741600
C161	C16	0.013000	0.745480	0.657440
H91	H9	0.862500	0.777300	0.625200
C171	C17	0.354800	0.822220	0.851100
O11	O1	0.303400	0.147230	0.970790
O21	O2	0.704700	0.113400	0.904310
O31	O3	0.197800	0.903180	0.880930
O41	O4	0.581000	0.779410	0.884670
H101	H10	0.600400	0.817000	0.928400
C181	C18	0.016600	0.371240	0.511110
H111	H11	0.029200	0.282300	0.518700
C191	C19	0.917700	0.435880	0.433060
C201	C20	0.902700	0.567750	0.421820
C211	C21	0.814200	0.645180	0.338850
C221	C22	0.589100	0.731670	0.340820
H121	H12	0.497500	0.746000	0.395700
C231	C23	0.498300	0.797180	0.262270
H131	H13	0.341400	0.853800	0.263600
C241	C24	0.636500	0.779930	0.182150
C251	C25	0.868000	0.697890	0.180540
H141	H14	0.967500	0.688700	0.126300
C261	C26	0.953700	0.629380	0.258390
H151	H15	0.108500	0.571400	0.256700
C271	C27	0.532600	0.845480	0.096760
C281	C28	0.831600	0.363030	0.364530
C291	C29	0.602100	0.404350	0.320730
H161	H16	0.490000	0.474900	0.337900
C301	C30	0.536500	0.343200	0.252350
H171	H17	0.380400	0.372300	0.222400
C311	C31	0.699200	0.238630	0.227230
C321	C32	0.922100	0.192960	0.273720
H181	H18	0.029500	0.119900	0.258400
C331	C33	0.987000	0.254520	0.342560
H191	H19	0.137500	0.222700	0.374800
C341	C34	0.645200	0.177780	0.148900
O51	O5	0.696600	0.852770	0.029210
O61	O6	0.295300	0.886600	0.095690
O71	O7	0.802200	0.096820	0.119070
O81	O8	0.419000	0.220590	0.115330
H201	H20	0.399600	0.183000	0.071600
Ca11	Ca1	0.000000	0.000000	0.000000
