data_YUNXAI_clean_PM
_symmetry_space_group_name_H-M	'P1'
_cell_length_a	24.260000
_cell_length_b	24.415000
_cell_length_c	24.531000
_cell_angle_alpha	83.566000
_cell_angle_beta	62.292000
_cell_angle_gamma	61.717000
_symmetry_Int_Tables_number 1

loop_
_symmetry_equiv_pos_as_xyz
'x,y,z'

loop_
_atom_site_label
_atom_site_type_symbol
_atom_site_fract_x
_atom_site_fract_y
_atom_site_fract_z
Yb11	Yb1	0.158640	0.279990	0.137530
O11	O1	0.063600	0.276100	0.224700
O21	O2	0.219300	0.262900	0.025100
O31	O3	0.213500	0.204300	0.191200
O41	O4	0.131000	0.380500	0.110600
O51	O5	0.267400	0.276300	0.105500
O61	O6	0.064800	0.309000	0.113800
O71	O7	0.133100	0.342700	0.221600
O81	O8	0.177300	0.182600	0.107200
N11	N1	0.042900	0.278400	0.285500
N21	N2	0.235000	0.215300	0.989900
N31	N3	0.260200	0.203500	0.206300
N41	N4	0.094500	0.412600	0.080100
N51	N5	0.312000	0.285700	0.052500
N61	N6	0.020300	0.286300	0.135700
N71	N7	0.145300	0.390600	0.217900
N81	N8	0.191300	0.131100	0.134300
C11	C1	0.075600	0.227400	0.308900
C21	C2	0.987000	0.331300	0.323700
C31	C3	0.186900	0.219400	0.974700
C41	C4	0.296900	0.164600	0.970800
C51	C5	0.236300	0.237500	0.260200
C61	C6	0.329500	0.167300	0.169200
C71	C7	0.126900	0.402400	0.018000
C81	C8	0.027100	0.454500	0.111000
C91	C9	0.375900	0.236100	0.015000
C101	C10	0.294200	0.345800	0.038000
C111	C11	0.037400	0.232100	0.109500
C121	C12	0.956100	0.319000	0.187000
C131	C13	0.092300	0.449400	0.232500
C141	C14	0.211600	0.379700	0.202100
C151	C15	0.137900	0.124800	0.182000
C161	C16	0.258200	0.085800	0.113200
H11	H1	0.117700	0.191700	0.281600
C171	C17	0.047800	0.227300	0.371800
C181	C18	0.960200	0.332200	0.385800
H21	H2	0.966400	0.367900	0.306900
H31	H3	0.143100	0.257100	0.987300
C191	C19	0.201000	0.169200	0.941200
C201	C20	0.314100	0.112200	0.935400
H41	H4	0.330700	0.163300	0.981000
H51	H5	0.186800	0.260800	0.287500
C211	C21	0.283800	0.237700	0.274400
C221	C22	0.377900	0.166700	0.183200
H61	H6	0.345000	0.142000	0.133000
C231	C23	0.089800	0.437000	0.985800
H71	H7	0.175300	0.371400	0.995800
C241	C24	0.989100	0.488300	0.080900
H81	H8	0.004600	0.461300	0.155200
C251	C25	0.422600	0.245600	0.962100
H91	H9	0.387800	0.194900	0.026000
H101	H10	0.249700	0.380200	0.064500
C261	C26	0.341400	0.355200	0.985200
C271	C27	0.991900	0.207300	0.133000
H111	H11	0.081900	0.210100	0.073600
C281	C28	0.908400	0.295400	0.212000
H121	H12	0.944000	0.357800	0.205500
H131	H13	0.045900	0.456300	0.244600
C291	C29	0.102900	0.499900	0.230600
C301	C30	0.224800	0.429000	0.199100
H141	H14	0.249000	0.337800	0.193000
C311	C31	0.153100	0.070600	0.210100
H151	H15	0.090200	0.157100	0.196400
C321	C32	0.275100	0.031800	0.139600
H161	H16	0.295000	0.091200	0.079200
H171	H17	0.070400	0.191000	0.387800
C331	C33	0.987500	0.279100	0.412400
H181	H18	0.921600	0.370100	0.412200
H191	H19	0.166300	0.172400	0.931200
C341	C34	0.263700	0.114600	0.921400
H201	H20	0.359300	0.075900	0.921300
C351	C35	0.356600	0.203200	0.236400
H211	H21	0.266900	0.262300	0.311600
H221	H22	0.427100	0.141100	0.156300
C361	C36	0.020500	0.481400	0.016300
H231	H23	0.113400	0.429400	0.941600
H241	H24	0.940100	0.517300	0.104400
H251	H25	0.466100	0.210400	0.935700
C371	C37	0.408900	0.304600	0.945400
H261	H26	0.329100	0.396500	0.974600
H271	H27	0.005500	0.168400	0.113300
C381	C38	0.926800	0.238000	0.184800
H281	H28	0.863600	0.318200	0.247400
C391	C39	0.170800	0.490900	0.213100
H291	H29	0.064200	0.541200	0.241000
H301	H30	0.271500	0.420800	0.187400
H311	H31	0.115400	0.066700	0.244400
C401	C40	0.220900	0.022900	0.189500
H321	H32	0.323300	0.000300	0.124400
C411	C41	0.954500	0.276200	0.479600
C421	C42	0.279200	0.056300	0.888700
C431	C43	0.408900	0.206800	0.249300
C441	C44	0.462000	0.316200	0.890200
C451	C45	0.878900	0.209000	0.212400
C461	C46	0.186400	0.542800	0.210200
C471	C47	0.237800	0.963800	0.217200
C481	C48	0.960800	0.219900	0.501900
C491	C49	0.914200	0.329500	0.524500
C501	C50	0.231400	0.035600	0.909300
C511	C51	0.344500	0.022300	0.837600
C521	C52	0.476000	0.190800	0.201700
C531	C53	0.394300	0.224700	0.307400
C541	C54	0.473600	0.366200	0.895000
C551	C55	0.503500	0.277800	0.833500
C561	C56	0.816600	0.234600	0.268800
C571	C57	0.897100	0.153600	0.182600
C581	C58	0.134600	0.601400	0.246500
C591	C59	0.252400	0.537000	0.171100
C601	C60	0.192600	0.961000	0.277800
C611	C61	0.298500	0.907600	0.183400
H331	H33	0.987700	0.182600	0.473200
C621	C62	0.929300	0.216400	0.564000
C631	C63	0.883300	0.324800	0.586800
H341	H34	0.908200	0.369200	0.511600
H351	H35	0.185800	0.059500	0.943500
C641	C64	0.247600	0.979600	0.881300
H361	H36	0.378700	0.036500	0.822000
C651	C65	0.359700	0.967400	0.809200
C661	C66	0.524000	0.197100	0.212200
H371	H37	0.489400	0.175400	0.161200
C671	C67	0.442800	0.230100	0.316800
H381	H38	0.349600	0.233600	0.341900
H391	H39	0.443900	0.395300	0.932100
C681	C68	0.527500	0.373300	0.846600
H401	H40	0.495600	0.244700	0.828000
C691	C69	0.555700	0.287200	0.785400
H411	H41	0.802500	0.272500	0.290600
C701	C70	0.775500	0.205500	0.292800
H421	H42	0.939500	0.134700	0.144300
C711	C71	0.854300	0.125400	0.208000
C721	C72	0.149800	0.648900	0.243100
H431	H43	0.087900	0.608100	0.274000
H441	H44	0.289000	0.498500	0.144800
C731	C73	0.266600	0.585300	0.169100
H451	H45	0.151000	0.998200	0.303000
C741	C74	0.207800	0.905300	0.301000
C751	C75	0.312100	0.853200	0.207400
H461	H46	0.331200	0.907700	0.142400
N91	N9	0.890000	0.269100	0.605700
H471	H47	0.934800	0.177100	0.578000
H481	H48	0.857100	0.361100	0.616700
N101	N10	0.312000	0.946300	0.832300
H491	H49	0.213700	0.965100	0.896600
H501	H50	0.404000	0.944600	0.773200
N111	N11	0.506800	0.216100	0.269600
H511	H51	0.569400	0.188000	0.178700
H521	H52	0.431000	0.244000	0.357300
N121	N12	0.568100	0.333600	0.792900
H531	H53	0.536300	0.406200	0.850700
H541	H54	0.583500	0.261000	0.746600
N131	N13	0.795400	0.151000	0.262400
H551	H55	0.732800	0.223700	0.331000
H561	H56	0.866900	0.087900	0.186600
N141	N14	0.215400	0.641000	0.205000
H571	H57	0.113600	0.688300	0.268000
H581	H58	0.312900	0.579500	0.142100
H591	H59	0.176500	0.904000	0.342300
N151	N15	0.267000	0.851600	0.266000
H601	H60	0.353700	0.815600	0.183000
O91	O9	0.860400	0.264100	0.665900
O101	O10	0.328400	0.892000	0.807700
O111	O11	0.552500	0.222900	0.279900
O121	O12	0.622700	0.339500	0.747900
O131	O13	0.757000	0.121800	0.287000
O141	O14	0.231200	0.686700	0.200800
O151	O15	0.279500	0.797700	0.289100
Yb21	Yb2	0.743120	0.280670	0.730400
Yb31	Yb3	0.348180	0.856760	0.711250
O161	O16	0.754900	0.287200	0.630100
O171	O17	0.821000	0.183700	0.746100
O181	O18	0.669900	0.271100	0.831800
O191	O19	0.724500	0.382700	0.713600
O201	O20	0.632300	0.119600	0.390700
O211	O21	0.566000	0.110000	0.325000
O221	O22	0.700500	0.200400	0.214000
O231	O23	0.613100	0.236500	0.349500
O241	O24	0.719300	0.031300	0.271300
N161	N16	0.733400	0.263500	0.602700
N171	N17	0.885800	0.160400	0.739900
N181	N18	0.678300	0.262300	0.882500
N191	N19	0.674900	0.429800	0.701400
N201	N20	0.646300	0.142200	0.427400
N211	N21	0.548900	0.079500	0.373300
C761	C76	0.778400	0.206600	0.568500
C771	C77	0.668100	0.295500	0.609000
C781	C78	0.895300	0.182200	0.781300
C791	C79	0.939900	0.114500	0.693300
C801	C80	0.639300	0.310200	0.928500
C811	C81	0.723800	0.206200	0.888300
C821	C82	0.614100	0.470700	0.749400
C831	C83	0.686700	0.437500	0.642800
C841	C84	0.593800	0.188600	0.472300
C851	C85	0.712700	0.117000	0.418400
C861	C86	0.495700	0.110800	0.428100
C871	C87	0.585900	0.017700	0.366900
H611	H61	0.823900	0.183300	0.566500
C881	C88	0.760400	0.181600	0.536900
H621	H62	0.635800	0.335200	0.634400
C891	C89	0.647300	0.270700	0.578000
C901	C90	0.961600	0.153500	0.778200
H631	H63	0.856800	0.217000	0.812200
C911	C91	0.008900	0.085900	0.687500
H641	H64	0.932000	0.101000	0.664000
H651	H65	0.608300	0.350300	0.923400
C921	C92	0.643700	0.302000	0.982400
C931	C93	0.730100	0.196200	0.941100
H661	H66	0.752000	0.172700	0.855000
C941	C94	0.564800	0.521400	0.739000
H671	H67	0.605700	0.464000	0.790800
C951	C95	0.638600	0.487600	0.630900
H681	H68	0.729200	0.407600	0.609300
H691	H69	0.546700	0.205000	0.478900
C961	C96	0.606700	0.214100	0.510400
H701	H70	0.749800	0.083000	0.386100
C971	C97	0.727700	0.139500	0.454700
H711	H71	0.470700	0.155300	0.432700
C981	C98	0.475400	0.081400	0.478000
C991	C99	0.567600	0.985500	0.416000
H721	H72	0.625500	0.995300	0.327900
C1001	C100	0.694600	0.213700	0.539700
H731	H73	0.793600	0.141500	0.512500
H741	H74	0.600300	0.293100	0.583300
C1011	C101	0.019600	0.104500	0.730800
H751	H75	0.967800	0.167300	0.808700
H761	H76	0.047600	0.054100	0.653700
C1021	C102	0.690400	0.244000	0.989900
H771	H77	0.614700	0.336100	0.015100
H781	H78	0.762500	0.155900	0.944500
H791	H79	0.521800	0.549700	0.773200
C1031	C103	0.576600	0.532200	0.678600
H801	H80	0.647400	0.492200	0.589100
C1041	C104	0.675800	0.189300	0.502300
H811	H81	0.568500	0.248400	0.542000
H821	H82	0.775300	0.120600	0.447400
C1051	C105	0.509400	0.017600	0.473600
H831	H83	0.436900	0.105700	0.516700
H841	H84	0.594700	0.941100	0.410800
C1061	C106	0.088800	0.071500	0.729800
C1071	C107	0.693700	0.233700	0.050000
C1081	C108	0.525700	0.590900	0.667300
C1091	C109	0.093000	0.055200	0.784900
C1101	C110	0.151800	0.054800	0.675000
C1111	C111	0.637600	0.271700	0.105300
C1121	C112	0.753000	0.185600	0.051900
C1131	C113	0.451700	0.616800	0.705100
C1141	C114	0.549200	0.624000	0.621100
H851	H85	0.050800	0.068000	0.823500
C1151	C115	0.158500	0.020400	0.783000
C1161	C116	0.216200	0.021400	0.675300
H861	H86	0.150500	0.066300	0.637200
H871	H87	0.596600	0.306200	0.105300
C1171	C117	0.640700	0.260000	0.158900
C1181	C118	0.754600	0.175700	0.107500
H881	H88	0.792800	0.159300	0.014700
C1191	C119	0.406200	0.673100	0.697600
H891	H89	0.433500	0.594300	0.736300
C1201	C120	0.501900	0.681600	0.616100
H901	H90	0.598300	0.606800	0.592600
N221	N22	0.217100	0.003500	0.729500
H911	H91	0.161300	0.008500	0.820200
H921	H92	0.259200	0.011100	0.638100
N231	N23	0.698500	0.211800	0.160600
H931	H93	0.601600	0.286200	0.196400
H941	H94	0.796000	0.142900	0.108300
H951	H95	0.356500	0.689500	0.723000
N241	N24	0.431600	0.705900	0.653900
H961	H96	0.519000	0.704900	0.585300
Yb41	Yb4	0.841360	0.720010	0.862470
O251	O25	0.936400	0.723900	0.775300
O261	O26	0.780700	0.737100	0.974900
O271	O27	0.786500	0.795700	0.808800
O281	O28	0.869000	0.619500	0.889400
O291	O29	0.732600	0.723700	0.894500
O301	O30	0.935200	0.691000	0.886200
O311	O31	0.866900	0.657300	0.778400
O321	O32	0.822700	0.817400	0.892800
N251	N25	0.957100	0.721600	0.714500
N261	N26	0.765000	0.784700	0.010100
N271	N27	0.739800	0.796500	0.793700
N281	N28	0.905500	0.587400	0.919900
N291	N29	0.688000	0.714300	0.947500
N301	N30	0.979700	0.713700	0.864300
N311	N31	0.854700	0.609400	0.782100
N321	N32	0.808700	0.868900	0.865700
C1211	C121	0.924400	0.772600	0.691100
C1221	C122	0.013000	0.668700	0.676300
C1231	C123	0.813100	0.780600	0.025300
C1241	C124	0.703100	0.835400	0.029200
C1251	C125	0.763700	0.762500	0.739800
C1261	C126	0.670500	0.832700	0.830800
C1271	C127	0.873100	0.597600	0.982000
C1281	C128	0.972900	0.545500	0.889000
C1291	C129	0.624100	0.763900	0.985000
C1301	C130	0.705800	0.654200	0.962000
C1311	C131	0.962600	0.767900	0.890500
C1321	C132	0.043900	0.681000	0.813000
C1331	C133	0.907700	0.550600	0.767500
C1341	C134	0.788400	0.620300	0.797900
C1351	C135	0.862100	0.875200	0.818000
C1361	C136	0.741800	0.914200	0.886800
H971	H97	0.882300	0.808300	0.718400
C1371	C137	0.952200	0.772700	0.628200
C1381	C138	0.039800	0.667800	0.614200
H981	H98	0.033600	0.632100	0.693100
H991	H99	0.856900	0.742900	0.012700
C1391	C139	0.799000	0.830800	0.058800
C1401	C140	0.685900	0.887800	0.064600
H1001	H100	0.669300	0.836700	0.019000
H1011	H101	0.813200	0.739200	0.712500
C1411	C141	0.716200	0.762300	0.725600
C1421	C142	0.622100	0.833300	0.816800
H1021	H102	0.655000	0.858000	0.867000
C1431	C143	0.910200	0.563000	0.014200
H1031	H103	0.824700	0.628600	0.004200
C1441	C144	0.010900	0.511700	0.919100
H1041	H104	0.995400	0.538700	0.844800
C1451	C145	0.577400	0.754400	0.037900
H1051	H105	0.612200	0.805100	0.974000
H1061	H106	0.750300	0.619800	0.935500
C1461	C146	0.658600	0.644800	0.014800
C1471	C147	0.008100	0.792700	0.867000
H1071	H107	0.918100	0.789900	0.926400
C1481	C148	0.091600	0.704600	0.788000
H1081	H108	0.056000	0.642200	0.794500
H1091	H109	0.954100	0.543700	0.755400
C1491	C149	0.897100	0.500100	0.769400
C1501	C150	0.775200	0.571000	0.800900
H1101	H110	0.751000	0.662200	0.807000
C1511	C151	0.846900	0.929400	0.789900
H1111	H111	0.909800	0.842900	0.803600
C1521	C152	0.724900	0.968200	0.860400
H1121	H112	0.705000	0.908800	0.920800
H1131	H113	0.929600	0.809000	0.612200
C1531	C153	0.012500	0.720900	0.587600
H1141	H114	0.078400	0.629900	0.587800
H1151	H115	0.833700	0.827600	0.068800
C1541	C154	0.736300	0.885400	0.078600
H1161	H116	0.640700	0.924100	0.078700
C1551	C155	0.643400	0.796800	0.763600
H1171	H117	0.733100	0.737700	0.688400
H1181	H118	0.572900	0.858900	0.843700
C1561	C156	0.979500	0.518600	0.983700
H1191	H119	0.886600	0.570600	0.058400
H1201	H120	0.059900	0.482700	0.895600
H1211	H121	0.533900	0.789600	0.064300
C1571	C157	0.591100	0.695400	0.054600
H1221	H122	0.670900	0.603500	0.025400
H1231	H123	0.994500	0.831600	0.886700
C1581	C158	0.073200	0.762000	0.815200
H1241	H124	0.136400	0.681800	0.752600
C1591	C159	0.829200	0.509100	0.786900
H1251	H125	0.935800	0.458800	0.759000
H1261	H126	0.728500	0.579200	0.812600
H1271	H127	0.884600	0.933300	0.755600
C1601	C160	0.779100	0.977100	0.810500
H1281	H128	0.676700	0.999700	0.875600
C1611	C161	0.045500	0.723800	0.520400
C1621	C162	0.720800	0.943700	0.111300
C1631	C163	0.591100	0.793200	0.750700
C1641	C164	0.538000	0.683800	0.109800
C1651	C165	0.121100	0.791000	0.787600
C1661	C166	0.813600	0.457200	0.789800
C1671	C167	0.762200	0.036200	0.782800
C1681	C168	0.039200	0.780100	0.498100
C1691	C169	0.085800	0.670500	0.475500
C1701	C170	0.768600	0.964400	0.090700
C1711	C171	0.655500	0.977700	0.162400
C1721	C172	0.524000	0.809200	0.798300
C1731	C173	0.605700	0.775300	0.692600
C1741	C174	0.526400	0.633800	0.105000
C1751	C175	0.496500	0.722200	0.166500
C1761	C176	0.183400	0.765400	0.731200
C1771	C177	0.102900	0.846400	0.817400
C1781	C178	0.865400	0.398600	0.753500
C1791	C179	0.747600	0.463000	0.828900
C1801	C180	0.807400	0.039000	0.722200
C1811	C181	0.701500	0.092400	0.816600
H1291	H129	0.012300	0.817400	0.526800
C1821	C182	0.070700	0.783600	0.436000
C1831	C183	0.116700	0.675200	0.413200
H1301	H130	0.091800	0.630800	0.488400
H1311	H131	0.814200	0.940500	0.056500
C1841	C184	0.752400	0.020400	0.118700
H1321	H132	0.621300	0.963500	0.178000
C1851	C185	0.640300	0.032600	0.190800
C1861	C186	0.476000	0.802900	0.787800
H1331	H133	0.510600	0.824600	0.838800
C1871	C187	0.557200	0.769900	0.683200
H1341	H134	0.650400	0.766400	0.658100
H1351	H135	0.556100	0.604700	0.067900
C1881	C188	0.472500	0.626700	0.153400
H1361	H136	0.504400	0.755300	0.172000
C1891	C189	0.444300	0.712800	0.214600
H1371	H137	0.197500	0.727500	0.709400
C1901	C190	0.224500	0.794500	0.707200
H1381	H138	0.060500	0.865300	0.855700
C1911	C191	0.145700	0.874600	0.792000
C1921	C192	0.850200	0.351100	0.756900
H1391	H139	0.912100	0.391900	0.726000
H1401	H140	0.711000	0.501500	0.855200
C1931	C193	0.733400	0.414700	0.830900
H1411	H141	0.849000	0.001800	0.697000
C1941	C194	0.792200	0.094700	0.699000
C1951	C195	0.687900	0.146800	0.792600
H1421	H142	0.668800	0.092300	0.857600
N331	N33	0.110000	0.730900	0.394300
H1431	H143	0.065200	0.822900	0.422000
H1441	H144	0.142900	0.638900	0.383300
N341	N34	0.688000	0.053700	0.167700
H1451	H145	0.786300	0.034900	0.103400
H1461	H146	0.596000	0.055400	0.226800
N351	N35	0.493200	0.783900	0.730400
H1471	H147	0.430600	0.812000	0.821300
H1481	H148	0.569000	0.756000	0.642700
N361	N36	0.431900	0.666400	0.207100
H1491	H149	0.463700	0.593800	0.149300
H1501	H150	0.416500	0.739000	0.253400
N371	N37	0.204600	0.849000	0.737600
H1511	H151	0.267200	0.776300	0.669000
H1521	H152	0.133100	0.912100	0.813400
N381	N38	0.784600	0.359000	0.795000
H1531	H153	0.886400	0.311700	0.732000
H1541	H154	0.687100	0.420500	0.857900
H1551	H155	0.823500	0.096000	0.657700
N391	N39	0.733000	0.148400	0.734000
H1561	H156	0.646300	0.184400	0.817000
O331	O33	0.139600	0.735900	0.334100
O341	O34	0.671600	0.108000	0.192300
O351	O35	0.447500	0.777100	0.720100
O361	O36	0.377300	0.660500	0.252100
O371	O37	0.243000	0.878200	0.713000
O381	O38	0.768800	0.313300	0.799200
O391	O39	0.720500	0.202300	0.710900
Yb51	Yb5	0.256880	0.719330	0.269600
Yb61	Yb6	0.651820	0.143240	0.288750
O401	O40	0.245100	0.712800	0.369900
O411	O41	0.179000	0.816300	0.253900
O421	O42	0.330100	0.728900	0.168200
O431	O43	0.275500	0.617300	0.286400
O441	O44	0.367700	0.880400	0.609300
O451	O45	0.434000	0.890000	0.675000
O461	O46	0.299500	0.799600	0.786000
O471	O47	0.386900	0.763500	0.650500
O481	O48	0.280700	0.968700	0.728700
N401	N40	0.266600	0.736500	0.397300
N411	N41	0.114200	0.839600	0.260100
N421	N42	0.321700	0.737700	0.117500
N431	N43	0.325100	0.570200	0.298600
N441	N44	0.353700	0.857800	0.572600
N451	N45	0.451100	0.920500	0.626700
C1961	C196	0.221600	0.793400	0.431500
C1971	C197	0.331900	0.704500	0.391000
C1981	C198	0.104700	0.817800	0.218700
C1991	C199	0.060100	0.885500	0.306700
C2001	C200	0.360700	0.689800	0.071500
C2011	C201	0.276200	0.793800	0.111700
C2021	C202	0.385900	0.529300	0.250600
C2031	C203	0.313300	0.562500	0.357200
C2041	C204	0.406200	0.811400	0.527700
C2051	C205	0.287300	0.883000	0.581600
C2061	C206	0.504300	0.889200	0.571900
C2071	C207	0.414100	0.982300	0.633100
H1571	H157	0.176100	0.816700	0.433500
C2081	C208	0.239600	0.818400	0.463100
H1581	H158	0.364200	0.664800	0.365600
C2091	C209	0.352700	0.729300	0.422000
C2101	C210	0.038400	0.846500	0.221800
H1591	H159	0.143200	0.783000	0.187800
C2111	C211	0.991100	0.914100	0.312500
H1601	H160	0.068000	0.899000	0.336000
H1611	H161	0.391700	0.649700	0.076600
C2121	C212	0.356300	0.698000	0.017600
C2131	C213	0.269900	0.803800	0.058900
H1621	H162	0.248000	0.827300	0.145000
C2141	C214	0.435200	0.478600	0.261000
H1631	H163	0.394300	0.536000	0.209200
C2151	C215	0.361400	0.512400	0.369100
H1641	H164	0.270800	0.592400	0.390700
H1651	H165	0.453300	0.795000	0.521100
C2161	C216	0.393300	0.785900	0.489600
H1661	H166	0.250200	0.917000	0.613900
C2171	C217	0.272300	0.860500	0.545300
H1671	H167	0.529300	0.844700	0.567300
C2181	C218	0.524600	0.918600	0.522000
C2191	C219	0.432400	0.014500	0.584000
H1681	H168	0.374500	0.004700	0.672100
C2201	C220	0.305400	0.786300	0.460300
H1691	H169	0.206400	0.858500	0.487500
H1701	H170	0.399700	0.706900	0.416700
C2211	C221	0.980400	0.895500	0.269200
H1711	H171	0.032200	0.832700	0.191300
H1721	H172	0.952400	0.945900	0.346300
C2221	C222	0.309600	0.756000	0.010100
H1731	H173	0.385300	0.663900	0.984900
H1741	H174	0.237500	0.844100	0.055500
H1751	H175	0.478200	0.450300	0.226800
C2231	C223	0.423400	0.467800	0.321400
H1761	H176	0.352600	0.507800	0.410900
C2241	C224	0.324200	0.810700	0.497700
H1771	H177	0.431500	0.751600	0.458000
H1781	H178	0.224700	0.879400	0.552600
C2251	C225	0.490600	0.982400	0.526400
H1791	H179	0.563100	0.894300	0.483300
H1801	H180	0.405300	0.058900	0.589200
C2261	C226	0.911200	0.928500	0.270200
C2271	C227	0.306300	0.766300	0.950000
C2281	C228	0.474300	0.409100	0.332700
C2291	C229	0.907000	0.944800	0.215100
C2301	C230	0.848200	0.945200	0.325000
C2311	C231	0.362400	0.728300	0.894700
C2321	C232	0.247000	0.814400	0.948100
C2331	C233	0.548300	0.383200	0.294900
C2341	C234	0.450800	0.376000	0.378900
H1811	H181	0.949200	0.932000	0.176500
C2351	C235	0.841500	0.979600	0.217000
C2361	C236	0.783800	0.978600	0.324700
H1821	H182	0.849500	0.933700	0.362800
H1831	H183	0.403400	0.693800	0.894700
C2371	C237	0.359300	0.740000	0.841100
C2381	C238	0.245400	0.824300	0.892500
H1841	H184	0.207200	0.840700	0.985300
C2391	C239	0.593800	0.326900	0.302400
H1851	H185	0.566500	0.405700	0.263700
C2401	C240	0.498100	0.318400	0.383900
H1861	H186	0.401700	0.393200	0.407400
N461	N46	0.782900	0.996500	0.270500
H1871	H187	0.838700	0.991500	0.179800
H1881	H188	0.740800	0.988900	0.361900
N471	N47	0.301500	0.788200	0.839400
H1891	H189	0.398400	0.713800	0.803600
H1901	H190	0.204000	0.857100	0.891700
H1911	H191	0.643500	0.310500	0.277000
N481	N48	0.568400	0.294100	0.346100
H1921	H192	0.481000	0.295100	0.414700
