data_YURKIG_clean_PM
_symmetry_space_group_name_H-M	'P1'
_cell_length_a	14.935100
_cell_length_b	19.033200
_cell_length_c	30.341100
_cell_angle_alpha	96.823900
_cell_angle_beta	90.000000
_cell_angle_gamma	113.100000
_symmetry_Int_Tables_number 1

loop_
_symmetry_equiv_pos_as_xyz
'x,y,z'

loop_
_atom_site_label
_atom_site_type_symbol
_atom_site_fract_x
_atom_site_fract_y
_atom_site_fract_z
Pr11	Pr1	0.375760	0.829610	0.158350
Pr21	Pr2	0.378480	0.586420	0.644500
Pr31	Pr3	0.453850	0.829610	0.658350
Pr41	Pr4	0.207940	0.586420	0.144500
H11	H1	0.368200	0.068200	0.236400
H21	H2	0.237100	0.335800	0.103900
H31	H3	0.962500	0.626400	0.145700
H41	H4	0.329200	0.058400	0.103300
H51	H5	0.302600	0.298600	0.248400
H61	H6	0.339200	0.179600	0.248300
H71	H7	0.236700	0.599800	0.514600
H81	H8	0.396600	0.810600	0.311400
H91	H9	0.455100	0.805600	0.505400
H101	H10	0.264700	0.402400	0.236800
H111	H11	0.179900	0.592600	0.442400
H121	H12	0.541500	0.575000	0.138500
H131	H13	0.162300	0.610200	0.286800
H141	H14	0.153700	0.596200	0.361800
H151	H15	0.578500	0.799600	0.155100
H161	H16	0.746000	0.838200	0.156100
H171	H17	0.075800	0.859400	0.162500
H181	H18	0.921400	0.859400	0.161800
H191	H19	0.700000	0.068200	0.736400
H201	H20	0.098700	0.335800	0.603900
H211	H21	0.663900	0.626400	0.645700
H221	H22	0.729200	0.058400	0.603300
H231	H23	0.996000	0.298600	0.748400
H241	H24	0.840400	0.179600	0.748300
H251	H25	0.363100	0.599800	0.014600
H261	H26	0.414000	0.810600	0.811400
H271	H27	0.350500	0.805600	0.005400
H281	H28	0.137700	0.402400	0.736800
H291	H29	0.412700	0.592600	0.942400
H301	H30	0.033500	0.575000	0.638500
H311	H31	0.447900	0.610200	0.786800
H321	H32	0.442500	0.596200	0.861800
H331	H33	0.221100	0.799600	0.655100
H341	H34	0.092200	0.838200	0.656100
H351	H35	0.783600	0.859400	0.662500
H361	H36	0.938000	0.859400	0.661800
C11	C1	0.354260	0.088720	0.212210
C21	C2	0.368970	0.978940	0.162370
C31	C3	0.250620	0.329040	0.132660
C41	C4	0.275140	0.692480	0.381050
C51	C5	0.289600	0.690800	0.429140
C61	C6	0.315830	0.186060	0.183160
C71	C7	0.955220	0.673040	0.148820
C81	C8	0.351220	0.051440	0.169050
C91	C9	0.542390	0.682980	0.147950
C101	C10	0.331000	0.082000	0.132130
C111	C11	0.352560	0.701920	0.517200
C121	C12	0.279880	0.711360	0.291390
C131	C13	0.281080	0.716960	0.242400
C141	C14	0.219710	0.446020	0.162730
C151	C15	0.388120	0.701840	0.563150
C161	C16	0.290110	0.306220	0.219720
C171	C17	0.314010	0.148620	0.140400
C181	C18	0.138340	0.747680	0.152640
C191	C19	0.035360	0.742120	0.153540
C201	C20	0.336840	0.155480	0.219530
C211	C21	0.269880	0.638960	0.497750
C221	C22	0.349270	0.767140	0.320970
C231	C23	0.246500	0.379600	0.169500
C241	C24	0.371110	0.753620	0.448480
C251	C25	0.862530	0.675060	0.148820
C261	C26	0.682680	0.653560	0.144750
C271	C27	0.434670	0.660260	0.149090
C281	C28	0.345760	0.755920	0.365320
C291	C29	0.402720	0.761840	0.492730
C301	C30	0.266880	0.368160	0.212660
C311	C31	0.236310	0.633420	0.454310
C321	C32	0.294600	0.255800	0.183440
C331	C33	0.275270	0.268740	0.140610
C341	C34	0.581100	0.627200	0.142900
C351	C35	0.208240	0.647480	0.307090
C361	C36	0.744690	0.731180	0.150810
C371	C37	0.203310	0.637820	0.351800
C381	C38	0.849570	0.744140	0.153310
C391	C39	0.605250	0.762700	0.152600
C401	C40	0.705560	0.786120	0.153600
C411	C41	0.021740	0.812880	0.158800
C421	C42	0.929570	0.813140	0.158500
C431	C43	0.734460	0.088720	0.712210
C441	C44	0.609970	0.978940	0.662370
C451	C45	0.078420	0.329040	0.632660
C461	C46	0.417340	0.692480	0.881050
C471	C47	0.401200	0.690800	0.929140
C481	C48	0.870230	0.186060	0.683160
C491	C49	0.717820	0.673040	0.648820
C501	C50	0.700220	0.051440	0.669050
C511	C51	0.140590	0.682980	0.647950
C521	C52	0.751000	0.082000	0.632130
C531	C53	0.349360	0.701920	0.017200
C541	C54	0.431480	0.711360	0.791390
C551	C55	0.435880	0.716960	0.742400
C561	C56	0.226310	0.446020	0.662730
C571	C57	0.313720	0.701840	0.063150
C581	C58	0.016110	0.306220	0.719720
C591	C59	0.834610	0.148620	0.640400
C601	C60	0.609340	0.747680	0.652640
C611	C61	0.706760	0.742120	0.653540
C621	C62	0.818640	0.155480	0.719530
C631	C63	0.369080	0.638960	0.997750
C641	C64	0.417870	0.767140	0.820970
C651	C65	0.133100	0.379600	0.669500
C661	C66	0.382510	0.753620	0.948480
C671	C67	0.812530	0.675060	0.648820
C681	C68	0.970880	0.653560	0.644750
C691	C69	0.225590	0.660260	0.649090
C701	C70	0.410160	0.755920	0.865320
C711	C71	0.359120	0.761840	0.992730
C721	C72	0.101280	0.368160	0.712660
C731	C73	0.397110	0.633420	0.954310
C741	C74	0.961200	0.255800	0.683440
C751	C75	0.993470	0.268740	0.640610
C761	C76	0.046100	0.627200	0.642900
C771	C77	0.439240	0.647480	0.807090
C781	C78	0.986490	0.731180	0.650810
C791	C79	0.434510	0.637820	0.851800
C801	C80	0.894570	0.744140	0.653310
C811	C81	0.157450	0.762700	0.652600
C821	C82	0.080560	0.786120	0.653600
C831	C83	0.791140	0.812880	0.658800
C841	C84	0.883570	0.813140	0.658500
S11	S1	0.283650	0.196780	0.099910
S21	S2	0.749280	0.594760	0.144110
S31	S3	0.431220	0.814780	0.408730
S41	S4	0.913130	0.196780	0.599910
S51	S5	0.845480	0.594760	0.644110
S61	S6	0.383560	0.814780	0.908730
O11	O1	0.393600	0.956880	0.196630
O21	O2	0.329120	0.781240	0.229970
O31	O3	0.446280	0.765160	0.583720
O41	O4	0.357390	0.637380	0.577170
O51	O5	0.358170	0.941900	0.124240
O61	O6	0.198690	0.452760	0.123140
O71	O7	0.233760	0.655120	0.217630
O81	O8	0.401530	0.712380	0.154600
O91	O9	0.220330	0.492260	0.195430
O101	O10	0.362880	0.227560	0.071520
O111	O11	0.205550	0.812220	0.163040
O121	O12	0.379480	0.590420	0.145850
O131	O13	0.148820	0.685640	0.140520
O141	O14	0.190330	0.150060	0.078540
O151	O15	0.737360	0.547320	0.102270
O161	O16	0.524790	0.813180	0.401400
O171	O17	0.427590	0.889380	0.418070
O181	O18	0.733370	0.556740	0.183120
O191	O19	0.563280	0.956880	0.696630
O201	O20	0.452120	0.781240	0.729970
O211	O21	0.318880	0.765160	0.083720
O221	O22	0.279990	0.637380	0.077170
O231	O23	0.583730	0.941900	0.624240
O241	O24	0.254070	0.452760	0.623140
O251	O25	0.421360	0.655120	0.717630
O261	O26	0.310850	0.712380	0.654600
O271	O27	0.271930	0.492260	0.695430
O281	O28	0.864680	0.227560	0.571520
O291	O29	0.606670	0.812220	0.663040
O301	O30	0.210940	0.590420	0.645850
O311	O31	0.536820	0.685640	0.640520
O321	O32	0.959730	0.150060	0.578540
O331	O33	0.809960	0.547320	0.602270
O341	O34	0.288390	0.813180	0.901400
O351	O35	0.461790	0.889380	0.918070
O361	O36	0.823370	0.556740	0.683120
Pr51	Pr5	0.546150	0.170390	0.341650
Pr61	Pr6	0.792060	0.413580	0.855500
Pr71	Pr7	0.624240	0.170390	0.841650
Pr81	Pr8	0.621520	0.413580	0.355500
H371	H37	0.300000	0.931800	0.263600
H381	H38	0.901300	0.664200	0.396100
H391	H39	0.336100	0.373600	0.354300
H401	H40	0.270800	0.941600	0.396700
H411	H41	0.004000	0.701400	0.251600
H421	H42	0.159600	0.820400	0.251700
H431	H43	0.636900	0.400200	0.985400
H441	H44	0.586000	0.189400	0.188600
H451	H45	0.649500	0.194400	0.994600
H461	H46	0.862300	0.597600	0.263200
H471	H47	0.587300	0.407400	0.057600
H481	H48	0.966500	0.425000	0.361500
H491	H49	0.552100	0.389800	0.213200
H501	H50	0.557500	0.403800	0.138200
H511	H51	0.778900	0.200400	0.344900
H521	H52	0.907800	0.161800	0.343900
H531	H53	0.216400	0.140600	0.337500
H541	H54	0.062000	0.140600	0.338200
H551	H55	0.631800	0.931800	0.763600
H561	H56	0.762900	0.664200	0.896100
H571	H57	0.037500	0.373600	0.854300
H581	H58	0.670800	0.941600	0.896700
H591	H59	0.697400	0.701400	0.751600
H601	H60	0.660800	0.820400	0.751700
H611	H61	0.763300	0.400200	0.485400
H621	H62	0.603400	0.189400	0.688600
H631	H63	0.544900	0.194400	0.494600
H641	H64	0.735300	0.597600	0.763200
H651	H65	0.820100	0.407400	0.557600
H661	H66	0.458500	0.425000	0.861500
H671	H67	0.837700	0.389800	0.713200
H681	H68	0.846300	0.403800	0.638200
H691	H69	0.421500	0.200400	0.844900
H701	H70	0.254000	0.161800	0.843900
H711	H71	0.924200	0.140600	0.837500
H721	H72	0.078600	0.140600	0.838200
C851	C85	0.265540	0.911280	0.287790
C861	C86	0.390030	0.021060	0.337630
C871	C87	0.921580	0.670960	0.367340
C881	C88	0.582660	0.307520	0.118950
C891	C89	0.598800	0.309200	0.070860
C901	C90	0.129770	0.813940	0.316840
C911	C91	0.282180	0.326960	0.351180
C921	C92	0.299780	0.948560	0.330950
C931	C93	0.859410	0.317020	0.352050
C941	C94	0.249000	0.918000	0.367870
C951	C95	0.650640	0.298080	0.982800
C961	C96	0.568520	0.288640	0.208610
C971	C97	0.564120	0.283040	0.257600
C981	C98	0.773690	0.553980	0.337270
C991	C99	0.686280	0.298160	0.936850
C1001	C100	0.983890	0.693780	0.280280
C1011	C101	0.165390	0.851380	0.359600
C1021	C102	0.390660	0.252320	0.347360
C1031	C103	0.293240	0.257880	0.346460
C1041	C104	0.181360	0.844520	0.280470
C1051	C105	0.630920	0.361040	0.002250
C1061	C106	0.582130	0.232860	0.179030
C1071	C107	0.866900	0.620400	0.330500
C1081	C108	0.617490	0.246380	0.051520
C1091	C109	0.187470	0.324940	0.351180
C1101	C110	0.029120	0.346440	0.355250
C1111	C111	0.774410	0.339740	0.350910
C1121	C112	0.589840	0.244080	0.134680
C1131	C113	0.640880	0.238160	0.007270
C1141	C114	0.898720	0.631840	0.287340
C1151	C115	0.602890	0.366580	0.045690
C1161	C116	0.038800	0.744200	0.316560
C1171	C117	0.006530	0.731260	0.359390
C1181	C118	0.953900	0.372800	0.357100
C1191	C119	0.560760	0.352520	0.192910
C1201	C120	0.013510	0.268820	0.349190
C1211	C121	0.565490	0.362180	0.148200
C1221	C122	0.105430	0.255860	0.346690
C1231	C123	0.842550	0.237300	0.347400
C1241	C124	0.919440	0.213880	0.346400
C1251	C125	0.208860	0.187120	0.341200
C1261	C126	0.116430	0.186860	0.341500
C1271	C127	0.645740	0.911280	0.787790
C1281	C128	0.631030	0.021060	0.837630
C1291	C129	0.749380	0.670960	0.867340
C1301	C130	0.724860	0.307520	0.618950
C1311	C131	0.710400	0.309200	0.570860
C1321	C132	0.684170	0.813940	0.816840
C1331	C133	0.044780	0.326960	0.851180
C1341	C134	0.648780	0.948560	0.830950
C1351	C135	0.457610	0.317020	0.852050
C1361	C136	0.669000	0.918000	0.867870
C1371	C137	0.647440	0.298080	0.482800
C1381	C138	0.720120	0.288640	0.708610
C1391	C139	0.718920	0.283040	0.757600
C1401	C140	0.780290	0.553980	0.837270
C1411	C141	0.611880	0.298160	0.436850
C1421	C142	0.709890	0.693780	0.780280
C1431	C143	0.685990	0.851380	0.859600
C1441	C144	0.861660	0.252320	0.847360
C1451	C145	0.964640	0.257880	0.846460
C1461	C146	0.663160	0.844520	0.780470
C1471	C147	0.730120	0.361040	0.502250
C1481	C148	0.650730	0.232860	0.679030
C1491	C149	0.753500	0.620400	0.830500
C1501	C150	0.628890	0.246380	0.551520
C1511	C151	0.137470	0.324940	0.851180
C1521	C152	0.317320	0.346440	0.855250
C1531	C153	0.565330	0.339740	0.850910
C1541	C154	0.654240	0.244080	0.634680
C1551	C155	0.597280	0.238160	0.507270
C1561	C156	0.733120	0.631840	0.787340
C1571	C157	0.763690	0.366580	0.545690
C1581	C158	0.705400	0.744200	0.816560
C1591	C159	0.724730	0.731260	0.859390
C1601	C160	0.418900	0.372800	0.857100
C1611	C161	0.791760	0.352520	0.692910
C1621	C162	0.255310	0.268820	0.849190
C1631	C163	0.796690	0.362180	0.648200
C1641	C164	0.150430	0.255860	0.846690
C1651	C165	0.394750	0.237300	0.847400
C1661	C166	0.294440	0.213880	0.846400
C1671	C167	0.978260	0.187120	0.841200
C1681	C168	0.070430	0.186860	0.841500
S71	S7	0.086870	0.803220	0.400090
S81	S8	0.154520	0.405240	0.355890
S91	S9	0.616440	0.185220	0.091270
S101	S10	0.716350	0.803220	0.900090
S111	S11	0.250720	0.405240	0.855890
S121	S12	0.568780	0.185220	0.591270
O371	O37	0.436720	0.043120	0.303370
O381	O38	0.547880	0.218760	0.270030
O391	O39	0.681120	0.234840	0.916280
O401	O40	0.720010	0.362620	0.922830
O411	O41	0.416270	0.058100	0.375760
O421	O42	0.745930	0.547240	0.376860
O431	O43	0.578640	0.344880	0.282370
O441	O44	0.689150	0.287620	0.345400
O451	O45	0.728070	0.507740	0.304570
O461	O46	0.135320	0.772440	0.428480
O471	O47	0.393330	0.187780	0.336960
O481	O48	0.789060	0.409580	0.354150
O491	O49	0.463180	0.314360	0.359480
O501	O50	0.040270	0.849940	0.421460
O511	O51	0.190040	0.452680	0.397730
O521	O52	0.711610	0.186820	0.098600
O531	O53	0.538210	0.110620	0.081930
O541	O54	0.176630	0.443260	0.316880
O551	O55	0.606400	0.043120	0.803370
O561	O56	0.670880	0.218760	0.770030
O571	O57	0.553720	0.234840	0.416280
O581	O58	0.642610	0.362620	0.422830
O591	O59	0.641830	0.058100	0.875760
O601	O60	0.801310	0.547240	0.876860
O611	O61	0.766240	0.344880	0.782370
O621	O62	0.598470	0.287620	0.845400
O631	O63	0.779670	0.507740	0.804570
O641	O64	0.637120	0.772440	0.928480
O651	O65	0.794450	0.187780	0.836960
O661	O66	0.620520	0.409580	0.854150
O671	O67	0.851180	0.314360	0.859480
O681	O68	0.809670	0.849940	0.921460
O691	O69	0.262640	0.452680	0.897730
O701	O70	0.475210	0.186820	0.598600
O711	O71	0.572410	0.110620	0.581930
O721	O72	0.266630	0.443260	0.816880
