data_YURKAY_clean_PM
_symmetry_space_group_name_H-M	'P1'
_cell_length_a	12.499600
_cell_length_b	17.700800
_cell_length_c	22.386900
_cell_angle_alpha	79.657000
_cell_angle_beta	80.452000
_cell_angle_gamma	81.326000
_symmetry_Int_Tables_number 1

loop_
_symmetry_equiv_pos_as_xyz
'x,y,z'

loop_
_atom_site_label
_atom_site_type_symbol
_atom_site_fract_x
_atom_site_fract_y
_atom_site_fract_z
Dy11	Dy1	0.653370	0.029210	0.997920
Dy21	Dy2	0.871180	0.429900	0.518050
Dy31	Dy3	0.346630	0.970790	0.002080
Dy41	Dy4	0.128820	0.570100	0.481950
H11	H1	0.753600	0.007300	0.201700
H21	H2	0.711600	0.230200	0.119500
H31	H3	0.777400	0.045800	0.291500
H41	H4	0.799300	0.108600	0.381000
H51	H5	0.758000	0.378500	0.332100
H61	H6	0.820600	0.184800	0.451500
H71	H7	0.690700	0.885900	0.125300
H81	H8	0.454200	0.746600	0.151100
H91	H9	0.530300	0.666700	0.232600
H101	H10	0.635500	0.596600	0.317600
H111	H11	0.747400	0.551400	0.395900
H121	H12	0.931100	0.726100	0.328500
H131	H13	0.955200	0.695400	0.636600
H141	H14	0.714700	0.560400	0.663000
H151	H15	0.618700	0.625400	0.742300
H161	H16	0.542000	0.711000	0.822000
H171	H17	0.768000	0.894700	0.830200
H181	H18	0.491600	0.799300	0.889000
H191	H19	0.246400	0.992700	0.798300
H201	H20	0.288400	0.769800	0.880500
H211	H21	0.222600	0.954200	0.708500
H221	H22	0.200700	0.891400	0.619000
H231	H23	0.242000	0.621500	0.667900
H241	H24	0.179400	0.815200	0.548500
H251	H25	0.309300	0.114100	0.874700
H261	H26	0.545800	0.253400	0.848900
H271	H27	0.469700	0.333300	0.767400
H281	H28	0.364500	0.403400	0.682400
H291	H29	0.252600	0.448600	0.604100
H301	H30	0.068900	0.273900	0.671500
H311	H31	0.044800	0.304600	0.363400
H321	H32	0.285300	0.439600	0.337000
H331	H33	0.381300	0.374600	0.257700
H341	H34	0.458000	0.289000	0.178000
H351	H35	0.232000	0.105300	0.169800
H361	H36	0.508400	0.200700	0.111000
C11	C1	0.724100	0.084700	0.092200
C21	C2	0.734400	0.114700	0.150800
C31	C3	0.751000	0.059600	0.203400
C41	C4	0.724800	0.193300	0.153500
C51	C5	0.735600	0.214500	0.207800
C61	C6	0.763500	0.082500	0.257400
C71	C7	0.754900	0.161300	0.260100
C81	C8	0.767800	0.197700	0.313200
C91	C9	0.754500	0.278300	0.300100
C101	C10	0.791700	0.162300	0.370700
C111	C11	0.766900	0.324800	0.342000
C121	C12	0.804300	0.208200	0.412900
C131	C13	0.792800	0.288800	0.398300
C141	C14	0.808500	0.338700	0.444900
C151	C15	0.503300	0.875900	0.081300
C161	C16	0.563300	0.824000	0.129300
C171	C17	0.658700	0.842500	0.145500
C181	C18	0.517400	0.758500	0.162200
C191	C19	0.562300	0.709700	0.211300
C201	C20	0.703400	0.792600	0.193600
C211	C21	0.657300	0.729500	0.226100
C221	C22	0.718600	0.687600	0.278500
C231	C23	0.809900	0.724600	0.281900
C241	C24	0.694100	0.622000	0.320200
C251	C25	0.761900	0.594900	0.367100
C261	C26	0.873200	0.699700	0.326600
C271	C27	0.852600	0.634900	0.369700
C281	C28	0.922300	0.605400	0.418000
C291	C29	0.904100	0.576200	0.591900
C301	C30	0.843900	0.619800	0.643300
C311	C31	0.889400	0.680500	0.657900
C321	C32	0.744200	0.600300	0.673900
C331	C33	0.832200	0.717800	0.705700
C341	C34	0.685400	0.639500	0.721600
C351	C35	0.731100	0.700100	0.736500
C361	C36	0.684600	0.749100	0.784400
C371	C37	0.750600	0.804600	0.787800
C381	C38	0.587700	0.747600	0.822700
C391	C39	0.721600	0.859000	0.828600
C401	C40	0.557600	0.801100	0.862900
C411	C41	0.622900	0.857300	0.865500
C421	C42	0.584800	0.914500	0.910700
C431	C43	0.275900	0.915300	0.907800
C441	C44	0.265600	0.885300	0.849200
C451	C45	0.249000	0.940400	0.796600
C461	C46	0.275200	0.806700	0.846500
C471	C47	0.264400	0.785500	0.792200
C481	C48	0.236500	0.917500	0.742600
C491	C49	0.245100	0.838700	0.739900
C501	C50	0.232200	0.802300	0.686800
C511	C51	0.245500	0.721700	0.699900
C521	C52	0.208300	0.837700	0.629300
C531	C53	0.233100	0.675200	0.658000
C541	C54	0.195700	0.791800	0.587100
C551	C55	0.207200	0.711200	0.601700
C561	C56	0.191500	0.661300	0.555100
C571	C57	0.496700	0.124100	0.918700
C581	C58	0.436700	0.176000	0.870700
C591	C59	0.341300	0.157500	0.854500
C601	C60	0.482600	0.241500	0.837800
C611	C61	0.437700	0.290300	0.788700
C621	C62	0.296600	0.207400	0.806400
C631	C63	0.342700	0.270500	0.773900
C641	C64	0.281400	0.312400	0.721500
C651	C65	0.190100	0.275400	0.718100
C661	C66	0.305900	0.378000	0.679800
C671	C67	0.238100	0.405100	0.632900
C681	C68	0.126800	0.300300	0.673400
C691	C69	0.147400	0.365100	0.630300
C701	C70	0.077700	0.394600	0.582000
C711	C71	0.095900	0.423800	0.408100
C721	C72	0.156100	0.380200	0.356700
C731	C73	0.110600	0.319500	0.342100
C741	C74	0.255800	0.399700	0.326100
C751	C75	0.167800	0.282200	0.294300
C761	C76	0.314600	0.360500	0.278400
C771	C77	0.268900	0.299900	0.263500
C781	C78	0.315400	0.250900	0.215600
C791	C79	0.249400	0.195400	0.212200
C801	C80	0.412300	0.252400	0.177300
C811	C81	0.278400	0.141000	0.171400
C821	C82	0.442400	0.198900	0.137100
C831	C83	0.377100	0.142700	0.134500
C841	C84	0.415200	0.085500	0.089300
S11	S1	0.720000	0.310600	0.224410
S21	S2	0.820700	0.806400	0.224000
S31	S3	0.873700	0.795200	0.734800
S41	S4	0.280000	0.689400	0.775590
S51	S5	0.179300	0.193600	0.776000
S61	S6	0.126300	0.204800	0.265200
O11	O1	0.712900	0.014700	0.096000
O21	O2	0.723100	0.133300	0.041000
O31	O3	0.841200	0.303900	0.494900
O41	O4	0.793100	0.410000	0.430100
O51	O5	0.799600	0.355700	0.185000
O61	O6	0.605800	0.344600	0.227600
O71	O7	0.550400	0.932600	0.050600
O81	O8	0.411900	0.863900	0.073200
O91	O9	0.903300	0.545000	0.456600
O101	O10	0.001600	0.642300	0.418900
O111	O11	0.799900	0.874700	0.250500
O121	O12	0.920900	0.796100	0.181100
O131	O13	0.980600	0.605000	0.558000
O141	O14	0.867900	0.513700	0.589700
O151	O15	0.648800	0.961100	0.915300
O161	O16	0.879200	0.863100	0.689000
O171	O17	0.966300	0.767500	0.767800
O181	O18	0.490600	0.907800	0.941000
O191	O19	0.287100	0.985300	0.904000
O201	O20	0.276900	0.866700	0.959000
O211	O21	0.158800	0.696100	0.505100
O221	O22	0.206900	0.590000	0.569900
O231	O23	0.200400	0.644300	0.815000
O241	O24	0.394200	0.655400	0.772400
O251	O25	0.449600	0.067400	0.949400
O261	O26	0.588100	0.136100	0.926800
O271	O27	0.096700	0.455000	0.543400
O281	O28	0.998400	0.357700	0.581100
O291	O29	0.200100	0.125300	0.749500
O301	O30	0.079100	0.203900	0.818900
O311	O31	0.019400	0.395000	0.442000
O321	O32	0.132100	0.486300	0.410300
O331	O33	0.351200	0.038900	0.084700
O341	O34	0.120800	0.136900	0.311000
O351	O35	0.033700	0.232500	0.232200
O361	O36	0.509400	0.092200	0.059000
