data_YUSGID_clean_PM
_symmetry_space_group_name_H-M	'P1'
_cell_length_a	9.409300
_cell_length_b	9.876000
_cell_length_c	18.307000
_cell_angle_alpha	79.350000
_cell_angle_beta	87.300000
_cell_angle_gamma	68.200000
_symmetry_Int_Tables_number 1

loop_
_symmetry_equiv_pos_as_xyz
'x,y,z'

loop_
_atom_site_label
_atom_site_type_symbol
_atom_site_fract_x
_atom_site_fract_y
_atom_site_fract_z
Zn11	Zn1	0.809240	0.100310	0.856650
Zn21	Zn2	0.094300	0.094480	0.968550
Zn31	Zn3	0.190760	0.899690	0.143350
Zn41	Zn4	0.905700	0.905520	0.031450
H11	H1	0.936200	0.067600	0.706800
H21	H2	0.047200	0.188600	0.616500
H31	H3	0.931700	0.523100	0.725200
H41	H4	0.815200	0.402600	0.811100
H51	H5	0.078600	0.541000	0.615800
H61	H6	0.165500	0.306200	0.547800
H71	H7	0.296900	0.305900	0.439700
H81	H8	0.433400	0.391400	0.350500
H91	H9	0.360400	0.739400	0.444900
H101	H10	0.226800	0.648000	0.538000
H111	H11	0.536300	0.534200	0.292600
H121	H12	0.499600	0.790500	0.331500
H131	H13	0.702000	0.552600	0.192700
H141	H14	0.841500	0.631700	0.099100
H151	H15	0.749300	0.000400	0.171900
H161	H16	0.609800	0.930300	0.266700
H171	H17	0.425600	0.460200	0.939000
H181	H18	0.118900	0.460100	0.099100
H191	H19	0.478300	0.086500	0.085800
H201	H20	0.015000	0.903700	0.919100
H211	H21	0.063800	0.932400	0.293200
H221	H22	0.952800	0.811400	0.383500
H231	H23	0.068300	0.476900	0.274800
H241	H24	0.184800	0.597400	0.188900
H251	H25	0.921400	0.459000	0.384200
H261	H26	0.834500	0.693800	0.452200
H271	H27	0.703100	0.694100	0.560300
H281	H28	0.566600	0.608600	0.649500
H291	H29	0.639600	0.260600	0.555100
H301	H30	0.773200	0.352000	0.462000
H311	H31	0.463700	0.465800	0.707400
H321	H32	0.500400	0.209500	0.668500
H331	H33	0.298000	0.447400	0.807300
H341	H34	0.158500	0.368300	0.900900
H351	H35	0.250700	0.999600	0.828100
H361	H36	0.390200	0.069700	0.733300
H371	H37	0.574400	0.539800	0.061000
H381	H38	0.881100	0.539900	0.900900
H391	H39	0.521700	0.913500	0.914200
H401	H40	0.985000	0.096300	0.080900
C11	C1	0.935900	0.159900	0.711400
C21	C2	0.003900	0.232100	0.657200
C31	C3	0.007600	0.366600	0.663000
C41	C4	0.935000	0.429700	0.720700
C51	C5	0.866500	0.356300	0.772500
C61	C6	0.086200	0.447700	0.608700
C71	C7	0.161900	0.398700	0.554100
C81	C8	0.246100	0.468600	0.498400
C91	C9	0.309500	0.394300	0.441500
C101	C10	0.390500	0.446300	0.387500
C111	C11	0.410400	0.574900	0.386200
C121	C12	0.348100	0.650700	0.443600
C131	C13	0.266900	0.596000	0.499600
C141	C14	0.501500	0.606000	0.322500
C151	C15	0.537600	0.715300	0.303700
C161	C16	0.635600	0.737200	0.240900
C171	C17	0.709600	0.644800	0.189200
C181	C18	0.793800	0.693200	0.133000
C191	C19	0.739700	0.908900	0.175800
C201	C20	0.654600	0.867200	0.233100
C211	C21	0.473000	0.259800	0.006330
C221	C22	0.391300	0.410400	0.979840
C231	C23	0.258100	0.485500	0.015100
C241	C24	0.208500	0.410700	0.076020
C251	C25	0.292100	0.261700	0.102860
C261	C26	0.423300	0.186400	0.067950
C271	C27	0.613400	0.175100	0.968590
C281	C28	0.164800	0.647300	0.986770
C291	C29	0.064100	0.840100	0.288600
C301	C30	0.996100	0.767900	0.342800
C311	C31	0.992400	0.633400	0.337000
C321	C32	0.065000	0.570300	0.279300
C331	C33	0.133500	0.643700	0.227500
C341	C34	0.913800	0.552300	0.391300
C351	C35	0.838100	0.601300	0.445900
C361	C36	0.753900	0.531400	0.501600
C371	C37	0.690500	0.605700	0.558500
C381	C38	0.609500	0.553700	0.612500
C391	C39	0.589600	0.425100	0.613800
C401	C40	0.651900	0.349300	0.556400
C411	C41	0.733100	0.404000	0.500400
C421	C42	0.498500	0.394000	0.677500
C431	C43	0.462400	0.284700	0.696300
C441	C44	0.364400	0.262800	0.759100
C451	C45	0.290400	0.355200	0.810800
C461	C46	0.206200	0.306800	0.867000
C471	C47	0.260300	0.091100	0.824200
C481	C48	0.345400	0.132800	0.766900
C491	C49	0.527000	0.740200	0.993670
C501	C50	0.608700	0.589600	0.020160
C511	C51	0.741900	0.514500	0.984900
C521	C52	0.791500	0.589300	0.923980
C531	C53	0.707900	0.738300	0.897140
C541	C54	0.576700	0.813600	0.932050
C551	C55	0.386600	0.824900	0.031410
C561	C56	0.835200	0.352700	0.013230
S11	S1	0.240470	0.175540	0.188200
S21	S2	0.759530	0.824460	0.811800
N11	N1	0.870600	0.218500	0.769520
N21	N2	0.808900	0.823800	0.125760
N31	N3	0.129400	0.781500	0.230480
N41	N4	0.191100	0.176200	0.874240
O11	O1	0.685600	0.042100	0.998580
O21	O2	0.649500	0.238400	0.908570
O31	O3	0.047000	0.701100	0.025000
O41	O4	0.206700	0.715800	0.931940
O51	O5	0.287600	0.016800	0.183010
O61	O6	0.331400	0.192700	0.244550
O71	O7	0.077600	0.246200	0.194520
O81	O8	0.981400	0.987500	0.925820
O91	O9	0.314400	0.957900	0.001420
O101	O10	0.350500	0.761600	0.091430
O111	O11	0.953000	0.298900	0.975000
O121	O12	0.793300	0.284200	0.068060
O131	O13	0.712400	0.983200	0.816990
O141	O14	0.668600	0.807300	0.755450
O151	O15	0.922400	0.753800	0.805480
O161	O16	0.018600	0.012500	0.074180
