data_YUSWEQ_clean_PM
_symmetry_space_group_name_H-M	'P1'
_cell_length_a	18.308500
_cell_length_b	9.078800
_cell_length_c	19.646400
_cell_angle_alpha	90.000000
_cell_angle_beta	97.068000
_cell_angle_gamma	90.000000
_symmetry_Int_Tables_number 1

loop_
_symmetry_equiv_pos_as_xyz
'x,y,z'

loop_
_atom_site_label
_atom_site_type_symbol
_atom_site_fract_x
_atom_site_fract_y
_atom_site_fract_z
O11	O1	0.093410	0.593900	0.966140
O21	O2	0.367480	0.553700	0.990470
O31	O3	0.406570	0.329900	0.959420
C11	C1	0.357710	0.427100	0.966560
Dy11	Dy1	0.971540	0.212240	0.997800
O41	O4	0.993210	0.958900	0.074800
O51	O5	0.225000	0.469700	0.955460
O61	O6	0.972470	0.176400	0.119410
C21	C2	0.177330	0.264400	0.902670
H11	H1	0.143900	0.194400	0.883300
O71	O7	0.034250	0.381000	0.938840
C31	C3	0.986730	0.041500	0.125900
C41	C4	0.254430	0.255800	0.907300
H21	H2	0.281900	0.180700	0.890600
C51	C5	0.997310	0.832900	0.213190
H31	H3	0.995500	0.750500	0.184900
C61	C6	0.090560	0.462100	0.946860
C71	C7	0.995390	0.974900	0.192770
C81	C8	0.281060	0.379500	0.941100
C91	C9	0.160660	0.394000	0.931760
O81	O8	0.593410	0.093900	0.966140
O91	O9	0.867480	0.053700	0.990470
O101	O10	0.906570	0.829900	0.959420
C101	C10	0.857710	0.927100	0.966560
Dy21	Dy2	0.471540	0.712240	0.997800
O111	O11	0.493210	0.458900	0.074800
O121	O12	0.725000	0.969700	0.955460
O131	O13	0.472470	0.676400	0.119410
C111	C11	0.677330	0.764400	0.902670
H41	H4	0.643900	0.694400	0.883300
O141	O14	0.534250	0.881000	0.938840
C121	C12	0.486730	0.541500	0.125900
C131	C13	0.754430	0.755800	0.907300
H51	H5	0.781900	0.680700	0.890600
C141	C14	0.497310	0.332900	0.213190
H61	H6	0.495500	0.250500	0.184900
C151	C15	0.590560	0.962100	0.946860
C161	C16	0.495390	0.474900	0.192770
C171	C17	0.781060	0.879500	0.941100
C181	C18	0.660660	0.894000	0.931760
O151	O15	0.906590	0.593900	0.533860
O161	O16	0.632520	0.553700	0.509530
O171	O17	0.593430	0.329900	0.540580
C191	C19	0.642290	0.427100	0.533440
Dy31	Dy3	0.028460	0.212240	0.502200
O181	O18	0.006790	0.958900	0.425200
O191	O19	0.775000	0.469700	0.544540
O201	O20	0.027530	0.176400	0.380590
C201	C20	0.822670	0.264400	0.597330
H71	H7	0.856100	0.194400	0.616700
O211	O21	0.965750	0.381000	0.561160
C211	C21	0.013270	0.041500	0.374100
C221	C22	0.745570	0.255800	0.592700
H81	H8	0.718100	0.180700	0.609400
C231	C23	0.002690	0.832900	0.286810
H91	H9	0.004500	0.750500	0.315100
C241	C24	0.909440	0.462100	0.553140
C251	C25	0.004610	0.974900	0.307230
C261	C26	0.718940	0.379500	0.558900
C271	C27	0.839340	0.394000	0.568240
O221	O22	0.406590	0.093900	0.533860
O231	O23	0.132520	0.053700	0.509530
O241	O24	0.093430	0.829900	0.540580
C281	C28	0.142290	0.927100	0.533440
Dy41	Dy4	0.528460	0.712240	0.502200
O251	O25	0.506790	0.458900	0.425200
O261	O26	0.275000	0.969700	0.544540
O271	O27	0.527530	0.676400	0.380590
C291	C29	0.322670	0.764400	0.597330
H101	H10	0.356100	0.694400	0.616700
O281	O28	0.465750	0.881000	0.561160
C301	C30	0.513270	0.541500	0.374100
C311	C31	0.245570	0.755800	0.592700
H111	H11	0.218100	0.680700	0.609400
C321	C32	0.502690	0.332900	0.286810
H121	H12	0.504500	0.250500	0.315100
C331	C33	0.409440	0.962100	0.553140
C341	C34	0.504610	0.474900	0.307230
C351	C35	0.218940	0.879500	0.558900
C361	C36	0.339340	0.894000	0.568240
O291	O29	0.906590	0.406100	0.033860
O301	O30	0.632520	0.446300	0.009530
O311	O31	0.593430	0.670100	0.040580
C371	C37	0.642290	0.572900	0.033440
Dy51	Dy5	0.028460	0.787760	0.002200
O321	O32	0.006790	0.041100	0.925200
O331	O33	0.775000	0.530300	0.044540
O341	O34	0.027530	0.823600	0.880590
C381	C38	0.822670	0.735600	0.097330
H131	H13	0.856100	0.805600	0.116700
O351	O35	0.965750	0.619000	0.061160
C391	C39	0.013270	0.958500	0.874100
C401	C40	0.745570	0.744200	0.092700
H141	H14	0.718100	0.819300	0.109400
C411	C41	0.002690	0.167100	0.786810
H151	H15	0.004500	0.249500	0.815100
C421	C42	0.909440	0.537900	0.053140
C431	C43	0.004610	0.025100	0.807230
C441	C44	0.718940	0.620500	0.058900
C451	C45	0.839340	0.606000	0.068240
O361	O36	0.406590	0.906100	0.033860
O371	O37	0.132520	0.946300	0.009530
O381	O38	0.093430	0.170100	0.040580
C461	C46	0.142290	0.072900	0.033440
Dy61	Dy6	0.528460	0.287760	0.002200
O391	O39	0.506790	0.541100	0.925200
O401	O40	0.275000	0.030300	0.044540
O411	O41	0.527530	0.323600	0.880590
C471	C47	0.322670	0.235600	0.097330
H161	H16	0.356100	0.305600	0.116700
O421	O42	0.465750	0.119000	0.061160
C481	C48	0.513270	0.458500	0.874100
C491	C49	0.245570	0.244200	0.092700
H171	H17	0.218100	0.319300	0.109400
C501	C50	0.502690	0.667100	0.786810
H181	H18	0.504500	0.749500	0.815100
C511	C51	0.409440	0.037900	0.053140
C521	C52	0.504610	0.525100	0.807230
C531	C53	0.218940	0.120500	0.058900
C541	C54	0.339340	0.106000	0.068240
O431	O43	0.093410	0.406100	0.466140
O441	O44	0.367480	0.446300	0.490470
O451	O45	0.406570	0.670100	0.459420
C551	C55	0.357710	0.572900	0.466560
Dy71	Dy7	0.971540	0.787760	0.497800
O461	O46	0.993210	0.041100	0.574800
O471	O47	0.225000	0.530300	0.455460
O481	O48	0.972470	0.823600	0.619410
C561	C56	0.177330	0.735600	0.402670
H191	H19	0.143900	0.805600	0.383300
O491	O49	0.034250	0.619000	0.438840
C571	C57	0.986730	0.958500	0.625900
C581	C58	0.254430	0.744200	0.407300
H201	H20	0.281900	0.819300	0.390600
C591	C59	0.997310	0.167100	0.713190
H211	H21	0.995500	0.249500	0.684900
C601	C60	0.090560	0.537900	0.446860
C611	C61	0.995390	0.025100	0.692770
C621	C62	0.281060	0.620500	0.441100
C631	C63	0.160660	0.606000	0.431760
O501	O50	0.593410	0.906100	0.466140
O511	O51	0.867480	0.946300	0.490470
O521	O52	0.906570	0.170100	0.459420
C641	C64	0.857710	0.072900	0.466560
Dy81	Dy8	0.471540	0.287760	0.497800
O531	O53	0.493210	0.541100	0.574800
O541	O54	0.725000	0.030300	0.455460
O551	O55	0.472470	0.323600	0.619410
C651	C65	0.677330	0.235600	0.402670
H221	H22	0.643900	0.305600	0.383300
O561	O56	0.534250	0.119000	0.438840
C661	C66	0.486730	0.458500	0.625900
C671	C67	0.754430	0.244200	0.407300
H231	H23	0.781900	0.319300	0.390600
C681	C68	0.497310	0.667100	0.713190
H241	H24	0.495500	0.749500	0.684900
C691	C69	0.590560	0.037900	0.446860
C701	C70	0.495390	0.525100	0.692770
C711	C71	0.781060	0.120500	0.441100
C721	C72	0.660660	0.106000	0.431760
O571	O57	0.000000	0.065600	0.250000
O581	O58	0.500000	0.565600	0.250000
O591	O59	0.000000	0.934400	0.750000
O601	O60	0.500000	0.434400	0.750000
