data_YUTDUO_clean_PM
_symmetry_space_group_name_H-M	'P1'
_cell_length_a	13.158700
_cell_length_b	13.158700
_cell_length_c	16.101200
_cell_angle_alpha	90.000000
_cell_angle_beta	90.000000
_cell_angle_gamma	120.000000
_symmetry_Int_Tables_number 1

loop_
_symmetry_equiv_pos_as_xyz
'x,y,z'

loop_
_atom_site_label
_atom_site_type_symbol
_atom_site_fract_x
_atom_site_fract_y
_atom_site_fract_z
P11	P1	0.148000	0.671500	0.147200
Al11	Al1	0.121900	0.459000	0.606300
Al21	Al2	0.112700	0.450100	0.242900
P21	P2	0.158400	0.681800	0.706400
Si11	Si1	0.212000	0.527600	0.423700
O11	O1	0.145800	0.586500	0.215600
O21	O2	0.020300	0.640400	0.123700
O31	O3	0.219100	0.803900	0.179600
O41	O4	0.218300	0.670500	0.069500
O51	O5	0.237100	0.817900	0.682200
O61	O6	0.147900	0.591800	0.638300
O71	O7	0.138000	0.453400	0.501900
O81	O8	0.036000	0.666800	0.736000
O91	O9	0.150700	0.463000	0.338800
O101	O10	0.214400	0.675200	0.793800
O111	O11	0.344000	0.554800	0.425500
P31	P3	0.328500	0.476500	0.147200
Al31	Al3	0.541000	0.662900	0.606300
Al41	Al4	0.549900	0.662600	0.242900
P41	P4	0.318200	0.476600	0.706400
Si21	Si2	0.472400	0.684400	0.423700
O121	O12	0.413500	0.559300	0.215600
O131	O13	0.359600	0.379900	0.123700
O141	O14	0.196100	0.415200	0.179600
O151	O15	0.329500	0.547800	0.069500
O161	O16	0.182100	0.419200	0.682200
O171	O17	0.408200	0.556100	0.638300
O181	O18	0.546600	0.684600	0.501900
O191	O19	0.333200	0.369200	0.736000
O201	O20	0.537000	0.687700	0.338800
O211	O21	0.324800	0.539200	0.793800
O221	O22	0.445200	0.789200	0.425500
P51	P5	0.523500	0.852000	0.147200
Al51	Al5	0.337100	0.878100	0.606300
Al61	Al6	0.337400	0.887300	0.242900
P61	P6	0.523400	0.841600	0.706400
Si31	Si3	0.315600	0.788000	0.423700
O231	O23	0.440700	0.854200	0.215600
O241	O24	0.620100	0.979700	0.123700
O251	O25	0.584800	0.780900	0.179600
O261	O26	0.452200	0.781700	0.069500
O271	O27	0.580800	0.762900	0.682200
O281	O28	0.443900	0.852100	0.638300
O291	O29	0.315400	0.862000	0.501900
O301	O30	0.630800	0.964000	0.736000
O311	O31	0.312300	0.849300	0.338800
O321	O32	0.460800	0.785600	0.793800
O331	O33	0.210800	0.656000	0.425500
P71	P7	0.852000	0.328500	0.647200
Al71	Al7	0.878100	0.541000	0.106300
Al81	Al8	0.887300	0.549900	0.742900
P81	P8	0.841600	0.318200	0.206400
Si41	Si4	0.788000	0.472400	0.923700
O341	O34	0.854200	0.413500	0.715600
O351	O35	0.979700	0.359600	0.623700
O361	O36	0.780900	0.196100	0.679600
O371	O37	0.781700	0.329500	0.569500
O381	O38	0.762900	0.182100	0.182200
O391	O39	0.852100	0.408200	0.138300
O401	O40	0.862000	0.546600	0.001900
O411	O41	0.964000	0.333200	0.236000
O421	O42	0.849300	0.537000	0.838800
O431	O43	0.785600	0.324800	0.293800
O441	O44	0.656000	0.445200	0.925500
P91	P9	0.671500	0.523500	0.647200
Al91	Al9	0.459000	0.337100	0.106300
Al101	Al10	0.450100	0.337400	0.742900
P101	P10	0.681800	0.523400	0.206400
Si51	Si5	0.527600	0.315600	0.923700
O451	O45	0.586500	0.440700	0.715600
O461	O46	0.640400	0.620100	0.623700
O471	O47	0.803900	0.584800	0.679600
O481	O48	0.670500	0.452200	0.569500
O491	O49	0.817900	0.580800	0.182200
O501	O50	0.591800	0.443900	0.138300
O511	O51	0.453400	0.315400	0.001900
O521	O52	0.666800	0.630800	0.236000
O531	O53	0.463000	0.312300	0.838800
O541	O54	0.675200	0.460800	0.293800
O551	O55	0.554800	0.210800	0.925500
P111	P11	0.476500	0.148000	0.647200
Al111	Al11	0.662900	0.121900	0.106300
Al121	Al12	0.662600	0.112700	0.742900
P121	P12	0.476600	0.158400	0.206400
Si61	Si6	0.684400	0.212000	0.923700
O561	O56	0.559300	0.145800	0.715600
O571	O57	0.379900	0.020300	0.623700
O581	O58	0.415200	0.219100	0.679600
O591	O59	0.547800	0.218300	0.569500
O601	O60	0.419200	0.237100	0.182200
O611	O61	0.556100	0.147900	0.138300
O621	O62	0.684600	0.138000	0.001900
O631	O63	0.369200	0.036000	0.236000
O641	O64	0.687700	0.150700	0.838800
O651	O65	0.539200	0.214400	0.293800
O661	O66	0.789200	0.344000	0.925500
Al131	Al13	0.333330	0.666670	0.015500
Al141	Al14	0.333330	0.666670	0.842800
Al151	Al15	0.666670	0.333330	0.515500
Al161	Al16	0.666670	0.333330	0.342800
