data_YUTGEZ_clean_PM
_symmetry_space_group_name_H-M	'P1'
_cell_length_a	17.995000
_cell_length_b	15.570000
_cell_length_c	12.360000
_cell_angle_alpha	90.000000
_cell_angle_beta	92.600000
_cell_angle_gamma	90.000000
_symmetry_Int_Tables_number 1

loop_
_symmetry_equiv_pos_as_xyz
'x,y,z'

loop_
_atom_site_label
_atom_site_type_symbol
_atom_site_fract_x
_atom_site_fract_y
_atom_site_fract_z
Sn11	Sn1	0.724900	0.539000	0.299700
C11	C1	0.768100	0.358300	0.437200
C21	C2	0.657400	0.250900	0.419000
C31	C3	0.792200	0.191500	0.382200
C41	C4	0.801300	0.626100	0.380900
C51	C5	0.617600	0.518000	0.363400
C61	C6	0.743600	0.472500	0.152700
C71	C7	0.563900	0.330400	0.138900
N11	N1	0.776200	0.425400	0.396400
N21	N2	0.602300	0.255200	0.368600
N31	N3	0.815500	0.156200	0.309100
Sn21	Sn2	0.224900	0.039000	0.299700
C81	C8	0.268100	0.858300	0.437200
C91	C9	0.157400	0.750900	0.419000
C101	C10	0.292200	0.691500	0.382200
C111	C11	0.301300	0.126100	0.380900
C121	C12	0.117600	0.018000	0.363400
C131	C13	0.243600	0.972500	0.152700
C141	C14	0.063900	0.830400	0.138900
N41	N4	0.276200	0.925400	0.396400
N51	N5	0.102300	0.755200	0.368600
N61	N6	0.315500	0.656200	0.309100
Sn31	Sn3	0.275100	0.539000	0.200300
C151	C15	0.231900	0.358300	0.062800
C161	C16	0.342600	0.250900	0.081000
C171	C17	0.207800	0.191500	0.117800
C181	C18	0.198700	0.626100	0.119100
C191	C19	0.382400	0.518000	0.136600
C201	C20	0.256400	0.472500	0.347300
C211	C21	0.436100	0.330400	0.361100
N71	N7	0.223800	0.425400	0.103600
N81	N8	0.397700	0.255200	0.131400
N91	N9	0.184500	0.156200	0.190900
Sn41	Sn4	0.775100	0.039000	0.200300
C221	C22	0.731900	0.858300	0.062800
C231	C23	0.842600	0.750900	0.081000
C241	C24	0.707800	0.691500	0.117800
C251	C25	0.698700	0.126100	0.119100
C261	C26	0.882400	0.018000	0.136600
C271	C27	0.756400	0.972500	0.347300
C281	C28	0.936100	0.830400	0.361100
N101	N10	0.723800	0.925400	0.103600
N111	N11	0.897700	0.755200	0.131400
N121	N12	0.684500	0.656200	0.190900
Sn51	Sn5	0.275100	0.461000	0.700300
C291	C29	0.231900	0.641700	0.562800
C301	C30	0.342600	0.749100	0.581000
C311	C31	0.207800	0.808500	0.617800
C321	C32	0.198700	0.373900	0.619100
C331	C33	0.382400	0.482000	0.636600
C341	C34	0.256400	0.527500	0.847300
C351	C35	0.436100	0.669600	0.861100
N131	N13	0.223800	0.574600	0.603600
N141	N14	0.397700	0.744800	0.631400
N151	N15	0.184500	0.843800	0.690900
Sn61	Sn6	0.775100	0.961000	0.700300
C361	C36	0.731900	0.141700	0.562800
C371	C37	0.842600	0.249100	0.581000
C381	C38	0.707800	0.308500	0.617800
C391	C39	0.698700	0.873900	0.619100
C401	C40	0.882400	0.982000	0.636600
C411	C41	0.756400	0.027500	0.847300
C421	C42	0.936100	0.169600	0.861100
N161	N16	0.723800	0.074600	0.603600
N171	N17	0.897700	0.244800	0.631400
N181	N18	0.684500	0.343800	0.690900
Sn71	Sn7	0.724900	0.461000	0.799700
C431	C43	0.768100	0.641700	0.937200
C441	C44	0.657400	0.749100	0.919000
C451	C45	0.792200	0.808500	0.882200
C461	C46	0.801300	0.373900	0.880900
C471	C47	0.617600	0.482000	0.863400
C481	C48	0.743600	0.527500	0.652700
C491	C49	0.563900	0.669600	0.638900
N191	N19	0.776200	0.574600	0.896400
N201	N20	0.602300	0.744800	0.868600
N211	N21	0.815500	0.843800	0.809100
Sn81	Sn8	0.224900	0.961000	0.799700
C501	C50	0.268100	0.141700	0.937200
C511	C51	0.157400	0.249100	0.919000
C521	C52	0.292200	0.308500	0.882200
C531	C53	0.301300	0.873900	0.880900
C541	C54	0.117600	0.982000	0.863400
C551	C55	0.243600	0.027500	0.652700
C561	C56	0.063900	0.169600	0.638900
N221	N22	0.276200	0.074600	0.896400
N231	N23	0.102300	0.244800	0.868600
N241	N24	0.315500	0.343800	0.809100
Sn91	Sn9	0.500000	0.259400	0.250000
C571	C57	0.500000	0.117200	0.250000
Sn101	Sn10	0.000000	0.759400	0.250000
C581	C58	0.000000	0.617200	0.250000
Sn111	Sn11	0.500000	0.740600	0.750000
C591	C59	0.500000	0.882800	0.750000
Sn121	Sn12	0.000000	0.240600	0.750000
C601	C60	0.000000	0.382800	0.750000
Fe11	Fe1	0.750000	0.250000	0.500000
Fe21	Fe2	0.250000	0.250000	0.000000
Fe31	Fe3	0.250000	0.750000	0.500000
Fe41	Fe4	0.750000	0.750000	0.000000
