data_YUYBIF_clean_PM
_symmetry_space_group_name_H-M	'P1'
_cell_length_a	9.509500
_cell_length_b	19.840000
_cell_length_c	21.035000
_cell_angle_alpha	90.000000
_cell_angle_beta	90.000000
_cell_angle_gamma	90.000000
_symmetry_Int_Tables_number 1

loop_
_symmetry_equiv_pos_as_xyz
'x,y,z'

loop_
_atom_site_label
_atom_site_type_symbol
_atom_site_fract_x
_atom_site_fract_y
_atom_site_fract_z
Cd11	Cd1	0.507540	0.553460	0.426140
N11	N1	0.483000	0.538030	0.317890
N21	N2	0.443100	0.559400	0.217550
N31	N3	0.560000	0.566160	0.116030
N41	N4	0.768000	0.552770	0.073280
O11	O1	0.971100	0.181150	0.398120
O21	O2	0.806000	0.118910	0.442720
O31	O3	0.721500	0.458270	0.402050
O41	O4	0.521000	0.443530	0.454640
S11	S1	0.817670	0.313840	0.412130
C11	C1	0.658200	0.348190	0.433110
C21	C2	0.566700	0.300100	0.452730
H11	H1	0.475300	0.309200	0.465800
C31	C3	0.624900	0.234700	0.451200
H21	H2	0.576100	0.196200	0.463400
C41	C4	0.758800	0.233960	0.430120
C51	C5	0.853800	0.174450	0.422510
C61	C6	0.635400	0.422220	0.429090
C71	C7	0.403900	0.487200	0.292100
H31	H3	0.372400	0.449500	0.314100
C81	C8	0.378400	0.499800	0.230500
H41	H4	0.327000	0.473200	0.202400
C91	C9	0.504500	0.580500	0.271070
H51	H5	0.555900	0.620200	0.274700
C101	C10	0.447600	0.593000	0.156040
H61	H6	0.462400	0.640900	0.162400
H71	H7	0.358100	0.587100	0.134600
C111	C11	0.553600	0.508300	0.080930
H81	H8	0.476600	0.479900	0.076100
C121	C12	0.681700	0.500900	0.054950
H91	H9	0.708100	0.465700	0.028300
C131	C13	0.689400	0.591300	0.110220
H101	H10	0.720200	0.630700	0.129600
Cd21	Cd2	0.492460	0.053460	0.073860
N51	N5	0.517000	0.038030	0.182110
N61	N6	0.556900	0.059400	0.282450
N71	N7	0.440000	0.066160	0.383970
N81	N8	0.232000	0.052770	0.426720
O51	O5	0.028900	0.681150	0.101880
O61	O6	0.194000	0.618910	0.057280
O71	O7	0.278500	0.958270	0.097950
O81	O8	0.479000	0.943530	0.045360
S21	S2	0.182330	0.813840	0.087870
C141	C14	0.341800	0.848190	0.066890
C151	C15	0.433300	0.800100	0.047270
H111	H11	0.524700	0.809200	0.034200
C161	C16	0.375100	0.734700	0.048800
H121	H12	0.423900	0.696200	0.036600
C171	C17	0.241200	0.733960	0.069880
C181	C18	0.146200	0.674450	0.077490
C191	C19	0.364600	0.922220	0.070910
C201	C20	0.596100	0.987200	0.207900
H131	H13	0.627600	0.949500	0.185900
C211	C21	0.621600	0.999800	0.269500
H141	H14	0.673000	0.973200	0.297600
C221	C22	0.495500	0.080500	0.228930
H151	H15	0.444100	0.120200	0.225300
C231	C23	0.552400	0.093000	0.343960
H161	H16	0.537600	0.140900	0.337600
H171	H17	0.641900	0.087100	0.365400
C241	C24	0.446400	0.008300	0.419070
H181	H18	0.523400	0.979900	0.423900
C251	C25	0.318300	0.000900	0.445050
H191	H19	0.291900	0.965700	0.471700
C261	C26	0.310600	0.091300	0.389780
H201	H20	0.279800	0.130700	0.370400
Cd31	Cd3	0.007540	0.553460	0.073860
N91	N9	0.983000	0.538030	0.182110
N101	N10	0.943100	0.559400	0.282450
N111	N11	0.060000	0.566160	0.383970
N121	N12	0.268000	0.552770	0.426720
O91	O9	0.471100	0.181150	0.101880
O101	O10	0.306000	0.118910	0.057280
O111	O11	0.221500	0.458270	0.097950
O121	O12	0.021000	0.443530	0.045360
S31	S3	0.317670	0.313840	0.087870
C271	C27	0.158200	0.348190	0.066890
C281	C28	0.066700	0.300100	0.047270
H211	H21	0.975300	0.309200	0.034200
C291	C29	0.124900	0.234700	0.048800
H221	H22	0.076100	0.196200	0.036600
C301	C30	0.258800	0.233960	0.069880
C311	C31	0.353800	0.174450	0.077490
C321	C32	0.135400	0.422220	0.070910
C331	C33	0.903900	0.487200	0.207900
H231	H23	0.872400	0.449500	0.185900
C341	C34	0.878400	0.499800	0.269500
H241	H24	0.827000	0.473200	0.297600
C351	C35	0.004500	0.580500	0.228930
H251	H25	0.055900	0.620200	0.225300
C361	C36	0.947600	0.593000	0.343960
H261	H26	0.962400	0.640900	0.337600
H271	H27	0.858100	0.587100	0.365400
C371	C37	0.053600	0.508300	0.419070
H281	H28	0.976600	0.479900	0.423900
C381	C38	0.181700	0.500900	0.445050
H291	H29	0.208100	0.465700	0.471700
C391	C39	0.189400	0.591300	0.389780
H301	H30	0.220200	0.630700	0.370400
Cd41	Cd4	0.992460	0.053460	0.426140
N131	N13	0.017000	0.038030	0.317890
N141	N14	0.056900	0.059400	0.217550
N151	N15	0.940000	0.066160	0.116030
N161	N16	0.732000	0.052770	0.073280
O131	O13	0.528900	0.681150	0.398120
O141	O14	0.694000	0.618910	0.442720
O151	O15	0.778500	0.958270	0.402050
O161	O16	0.979000	0.943530	0.454640
S41	S4	0.682330	0.813840	0.412130
C401	C40	0.841800	0.848190	0.433110
C411	C41	0.933300	0.800100	0.452730
H311	H31	0.024700	0.809200	0.465800
C421	C42	0.875100	0.734700	0.451200
H321	H32	0.923900	0.696200	0.463400
C431	C43	0.741200	0.733960	0.430120
C441	C44	0.646200	0.674450	0.422510
C451	C45	0.864600	0.922220	0.429090
C461	C46	0.096100	0.987200	0.292100
H331	H33	0.127600	0.949500	0.314100
C471	C47	0.121600	0.999800	0.230500
H341	H34	0.173000	0.973200	0.202400
C481	C48	0.995500	0.080500	0.271070
H351	H35	0.944100	0.120200	0.274700
C491	C49	0.052400	0.093000	0.156040
H361	H36	0.037600	0.140900	0.162400
H371	H37	0.141900	0.087100	0.134600
C501	C50	0.946400	0.008300	0.080930
H381	H38	0.023400	0.979900	0.076100
C511	C51	0.818300	0.000900	0.054950
H391	H39	0.791900	0.965700	0.028300
C521	C52	0.810600	0.091300	0.110220
H401	H40	0.779800	0.130700	0.129600
Cd51	Cd5	0.992460	0.446540	0.926140
N171	N17	0.017000	0.461970	0.817890
N181	N18	0.056900	0.440600	0.717550
N191	N19	0.940000	0.433840	0.616030
N201	N20	0.732000	0.447230	0.573280
O171	O17	0.528900	0.818850	0.898120
O181	O18	0.694000	0.881090	0.942720
O191	O19	0.778500	0.541730	0.902050
O201	O20	0.979000	0.556470	0.954640
S51	S5	0.682330	0.686160	0.912130
C531	C53	0.841800	0.651810	0.933110
C541	C54	0.933300	0.699900	0.952730
H411	H41	0.024700	0.690800	0.965800
C551	C55	0.875100	0.765300	0.951200
H421	H42	0.923900	0.803800	0.963400
C561	C56	0.741200	0.766040	0.930120
C571	C57	0.646200	0.825550	0.922510
C581	C58	0.864600	0.577780	0.929090
C591	C59	0.096100	0.512800	0.792100
H431	H43	0.127600	0.550500	0.814100
C601	C60	0.121600	0.500200	0.730500
H441	H44	0.173000	0.526800	0.702400
C611	C61	0.995500	0.419500	0.771070
H451	H45	0.944100	0.379800	0.774700
C621	C62	0.052400	0.407000	0.656040
H461	H46	0.037600	0.359100	0.662400
H471	H47	0.141900	0.412900	0.634600
C631	C63	0.946400	0.491700	0.580930
H481	H48	0.023400	0.520100	0.576100
C641	C64	0.818300	0.499100	0.554950
H491	H49	0.791900	0.534300	0.528300
C651	C65	0.810600	0.408700	0.610220
H501	H50	0.779800	0.369300	0.629600
Cd61	Cd6	0.007540	0.946540	0.573860
N211	N21	0.983000	0.961970	0.682110
N221	N22	0.943100	0.940600	0.782450
N231	N23	0.060000	0.933840	0.883970
N241	N24	0.268000	0.947230	0.926720
O211	O21	0.471100	0.318850	0.601880
O221	O22	0.306000	0.381090	0.557280
O231	O23	0.221500	0.041730	0.597950
O241	O24	0.021000	0.056470	0.545360
S61	S6	0.317670	0.186160	0.587870
C661	C66	0.158200	0.151810	0.566890
C671	C67	0.066700	0.199900	0.547270
H511	H51	0.975300	0.190800	0.534200
C681	C68	0.124900	0.265300	0.548800
H521	H52	0.076100	0.303800	0.536600
C691	C69	0.258800	0.266040	0.569880
C701	C70	0.353800	0.325550	0.577490
C711	C71	0.135400	0.077780	0.570910
C721	C72	0.903900	0.012800	0.707900
H531	H53	0.872400	0.050500	0.685900
C731	C73	0.878400	0.000200	0.769500
H541	H54	0.827000	0.026800	0.797600
C741	C74	0.004500	0.919500	0.728930
H551	H55	0.055900	0.879800	0.725300
C751	C75	0.947600	0.907000	0.843960
H561	H56	0.962400	0.859100	0.837600
H571	H57	0.858100	0.912900	0.865400
C761	C76	0.053600	0.991700	0.919070
H581	H58	0.976600	0.020100	0.923900
C771	C77	0.181700	0.999100	0.945050
H591	H59	0.208100	0.034300	0.971700
C781	C78	0.189400	0.908700	0.889780
H601	H60	0.220200	0.869300	0.870400
Cd71	Cd7	0.492460	0.446540	0.573860
N251	N25	0.517000	0.461970	0.682110
N261	N26	0.556900	0.440600	0.782450
N271	N27	0.440000	0.433840	0.883970
N281	N28	0.232000	0.447230	0.926720
O251	O25	0.028900	0.818850	0.601880
O261	O26	0.194000	0.881090	0.557280
O271	O27	0.278500	0.541730	0.597950
O281	O28	0.479000	0.556470	0.545360
S71	S7	0.182330	0.686160	0.587870
C791	C79	0.341800	0.651810	0.566890
C801	C80	0.433300	0.699900	0.547270
H611	H61	0.524700	0.690800	0.534200
C811	C81	0.375100	0.765300	0.548800
H621	H62	0.423900	0.803800	0.536600
C821	C82	0.241200	0.766040	0.569880
C831	C83	0.146200	0.825550	0.577490
C841	C84	0.364600	0.577780	0.570910
C851	C85	0.596100	0.512800	0.707900
H631	H63	0.627600	0.550500	0.685900
C861	C86	0.621600	0.500200	0.769500
H641	H64	0.673000	0.526800	0.797600
C871	C87	0.495500	0.419500	0.728930
H651	H65	0.444100	0.379800	0.725300
C881	C88	0.552400	0.407000	0.843960
H661	H66	0.537600	0.359100	0.837600
H671	H67	0.641900	0.412900	0.865400
C891	C89	0.446400	0.491700	0.919070
H681	H68	0.523400	0.520100	0.923900
C901	C90	0.318300	0.499100	0.945050
H691	H69	0.291900	0.534300	0.971700
C911	C91	0.310600	0.408700	0.889780
H701	H70	0.279800	0.369300	0.870400
Cd81	Cd8	0.507540	0.946540	0.926140
N291	N29	0.483000	0.961970	0.817890
N301	N30	0.443100	0.940600	0.717550
N311	N31	0.560000	0.933840	0.616030
N321	N32	0.768000	0.947230	0.573280
O291	O29	0.971100	0.318850	0.898120
O301	O30	0.806000	0.381090	0.942720
O311	O31	0.721500	0.041730	0.902050
O321	O32	0.521000	0.056470	0.954640
S81	S8	0.817670	0.186160	0.912130
C921	C92	0.658200	0.151810	0.933110
C931	C93	0.566700	0.199900	0.952730
H711	H71	0.475300	0.190800	0.965800
C941	C94	0.624900	0.265300	0.951200
H721	H72	0.576100	0.303800	0.963400
C951	C95	0.758800	0.266040	0.930120
C961	C96	0.853800	0.325550	0.922510
C971	C97	0.635400	0.077780	0.929090
C981	C98	0.403900	0.012800	0.792100
H731	H73	0.372400	0.050500	0.814100
C991	C99	0.378400	0.000200	0.730500
H741	H74	0.327000	0.026800	0.702400
C1001	C100	0.504500	0.919500	0.771070
H751	H75	0.555900	0.879800	0.774700
C1011	C101	0.447600	0.907000	0.656040
H761	H76	0.462400	0.859100	0.662400
H771	H77	0.358100	0.912900	0.634600
C1021	C102	0.553600	0.991700	0.580930
H781	H78	0.476600	0.020100	0.576100
C1031	C103	0.681700	0.999100	0.554950
H791	H79	0.708100	0.034300	0.528300
C1041	C104	0.689400	0.908700	0.610220
H801	H80	0.720200	0.869300	0.629600
