data_YUYLIP_clean_PM
_symmetry_space_group_name_H-M	'P1'
_cell_length_a	14.519600
_cell_length_b	23.367000
_cell_length_c	15.604200
_cell_angle_alpha	90.000000
_cell_angle_beta	107.475000
_cell_angle_gamma	90.000000
_symmetry_Int_Tables_number 1

loop_
_symmetry_equiv_pos_as_xyz
'x,y,z'

loop_
_atom_site_label
_atom_site_type_symbol
_atom_site_fract_x
_atom_site_fract_y
_atom_site_fract_z
Cd11	Cd1	0.743430	0.058090	0.083870
O11	O1	0.723800	0.050310	0.936000
O21	O2	0.762400	0.968420	0.123600
O31	O3	0.816600	0.082500	0.260700
O41	O4	0.833100	0.152930	0.094200
O51	O5	0.905900	0.069620	0.106100
O61	O6	0.652400	0.121350	0.130000
C11	C1	0.665400	0.011600	0.896900
C21	C2	0.689000	0.952300	0.144200
C31	C3	0.663000	0.994700	0.803100
O71	O7	0.610900	0.985280	0.930700
C41	C4	0.693600	0.894000	0.182600
O81	O8	0.616100	0.983450	0.134600
C51	C5	0.738100	0.007100	0.768100
C61	C6	0.583900	0.965100	0.749900
C71	C7	0.760100	0.854500	0.170700
C81	C8	0.634600	0.878000	0.233000
C91	C9	0.733400	0.990300	0.683100
H11	H1	0.791900	0.027000	0.802800
H21	H2	0.533300	0.955800	0.772500
C101	C10	0.579500	0.949200	0.663700
O91	O9	0.538800	0.093820	0.008700
C111	C11	0.767900	0.801900	0.208200
H31	H3	0.800000	0.864400	0.136400
H41	H4	0.587800	0.903300	0.239600
C121	C12	0.643500	0.825100	0.274000
C131	C13	0.653500	0.961400	0.628800
H51	H5	0.784800	0.998500	0.661100
H61	H6	0.525400	0.929800	0.628400
C141	C14	0.711400	0.786800	0.263000
H71	H7	0.811100	0.775600	0.197300
H81	H8	0.603900	0.815300	0.308800
N11	N1	0.648900	0.945700	0.538900
N21	N2	0.725100	0.733100	0.307900
C151	C15	0.683500	0.985700	0.486500
C161	C16	0.583200	0.902600	0.494400
C171	C17	0.817300	0.706200	0.332200
C181	C18	0.650200	0.707900	0.334500
C191	C19	0.727800	0.965400	0.424900
C201	C20	0.671500	0.043500	0.493600
C211	C21	0.519200	0.912300	0.409600
C221	C22	0.578800	0.850900	0.534700
C231	C23	0.900300	0.736900	0.366000
C241	C24	0.821800	0.646600	0.321500
C251	C25	0.558100	0.700700	0.275500
C261	C26	0.667900	0.687600	0.422200
H91	H9	0.737200	0.926300	0.420400
C271	C27	0.758400	0.003300	0.369700
C281	C28	0.701900	0.081700	0.439000
H101	H10	0.642900	0.057500	0.535300
H111	H11	0.523300	0.946000	0.379500
C291	C29	0.449200	0.872000	0.369500
C301	C30	0.509600	0.811300	0.495600
H121	H12	0.623800	0.842600	0.589700
H131	H13	0.896800	0.775900	0.376700
C311	C31	0.989600	0.710800	0.384600
C321	C32	0.909800	0.620700	0.342500
H141	H14	0.765500	0.625200	0.300400
H151	H15	0.544100	0.714500	0.217100
C331	C33	0.487000	0.673500	0.301800
C341	C34	0.597800	0.660600	0.449000
H161	H16	0.728700	0.692600	0.463200
H171	H17	0.787300	0.989400	0.328200
C351	C35	0.745500	0.061700	0.377000
H181	H18	0.692800	0.120800	0.444200
H191	H19	0.406800	0.879000	0.312600
C361	C36	0.442200	0.821700	0.413500
H201	H20	0.507900	0.776800	0.524800
H211	H21	0.045700	0.732500	0.404700
C371	C37	0.995400	0.651800	0.373100
H221	H22	0.912900	0.581200	0.336300
H231	H23	0.425900	0.668700	0.261100
C381	C38	0.506700	0.652900	0.389900
H241	H24	0.611700	0.647400	0.507700
C391	C39	0.774800	0.102100	0.314800
C401	C40	0.363200	0.779700	0.372900
C411	C41	0.090700	0.622100	0.391700
C421	C42	0.435200	0.621000	0.419200
O101	O10	0.752400	0.153700	0.319600
O111	O11	0.320300	0.780600	0.291300
O121	O12	0.340200	0.744400	0.423200
Cd21	Cd2	0.766500	0.193780	0.194890
Cd31	Cd3	0.256570	0.558090	0.416130
O131	O13	0.276200	0.550310	0.564000
O141	O14	0.237600	0.468420	0.376400
O151	O15	0.183400	0.582500	0.239300
O161	O16	0.166900	0.652930	0.405800
O171	O17	0.094100	0.569620	0.393900
O181	O18	0.347600	0.621350	0.370000
C431	C43	0.334600	0.511600	0.603100
C441	C44	0.311000	0.452300	0.355800
C451	C45	0.337000	0.494700	0.696900
O191	O19	0.389100	0.485280	0.569300
C461	C46	0.306400	0.394000	0.317400
O201	O20	0.383900	0.483450	0.365400
C471	C47	0.261900	0.507100	0.731900
C481	C48	0.416100	0.465100	0.750100
C491	C49	0.239900	0.354500	0.329300
C501	C50	0.365400	0.378000	0.267000
C511	C51	0.266600	0.490300	0.816900
H251	H25	0.208100	0.527000	0.697200
H261	H26	0.466700	0.455800	0.727500
C521	C52	0.420500	0.449200	0.836300
O211	O21	0.461200	0.593820	0.491300
C531	C53	0.232100	0.301900	0.291800
H271	H27	0.200000	0.364400	0.363600
H281	H28	0.412200	0.403300	0.260400
C541	C54	0.356500	0.325100	0.226000
C551	C55	0.346500	0.461400	0.871200
H291	H29	0.215200	0.498500	0.838900
H301	H30	0.474600	0.429800	0.871600
C561	C56	0.288600	0.286800	0.237000
H311	H31	0.188900	0.275600	0.302700
H321	H32	0.396100	0.315300	0.191200
N31	N3	0.351100	0.445700	0.961100
N41	N4	0.274900	0.233100	0.192100
C571	C57	0.316500	0.485700	0.013500
C581	C58	0.416800	0.402600	0.005600
C591	C59	0.182700	0.206200	0.167800
C601	C60	0.349800	0.207900	0.165500
C611	C61	0.272200	0.465400	0.075100
C621	C62	0.328500	0.543500	0.006400
C631	C63	0.480800	0.412300	0.090400
C641	C64	0.421200	0.350900	0.965300
C651	C65	0.099700	0.236900	0.134000
C661	C66	0.178200	0.146600	0.178500
C671	C67	0.441900	0.200700	0.224500
C681	C68	0.332100	0.187600	0.077800
H331	H33	0.262800	0.426300	0.079600
C691	C69	0.241600	0.503300	0.130300
C701	C70	0.298100	0.581700	0.061000
H341	H34	0.357100	0.557500	0.964700
H351	H35	0.476700	0.446000	0.120500
C711	C71	0.550800	0.372000	0.130500
C721	C72	0.490400	0.311300	0.004400
H361	H36	0.376200	0.342600	0.910300
H371	H37	0.103200	0.275900	0.123300
C731	C73	0.010400	0.210800	0.115400
C741	C74	0.090200	0.120700	0.157500
H381	H38	0.234500	0.125200	0.199600
H391	H39	0.455900	0.214500	0.282900
C751	C75	0.513000	0.173500	0.198200
C761	C76	0.402200	0.160600	0.051000
H401	H40	0.271300	0.192600	0.036800
H411	H41	0.212700	0.489400	0.171800
C771	C77	0.254500	0.561700	0.123000
H421	H42	0.307200	0.620800	0.055800
H431	H43	0.593200	0.379000	0.187400
C781	C78	0.557800	0.321700	0.086500
H441	H44	0.492100	0.276800	0.975200
H451	H45	0.954300	0.232500	0.095300
C791	C79	0.004600	0.151800	0.126900
H461	H46	0.087100	0.081200	0.163700
H471	H47	0.574100	0.168700	0.238900
C801	C80	0.493300	0.152900	0.110100
H481	H48	0.388300	0.147400	0.992300
C811	C81	0.225200	0.602100	0.185200
C821	C82	0.636800	0.279700	0.127100
C831	C83	0.909300	0.122100	0.108300
C841	C84	0.564800	0.121000	0.080800
O221	O22	0.247600	0.653700	0.180400
O231	O23	0.679700	0.280600	0.208700
O241	O24	0.659800	0.244400	0.076800
Cd41	Cd4	0.233500	0.693780	0.305110
Cd51	Cd5	0.256570	0.941910	0.916130
O251	O25	0.276200	0.949690	0.064000
O261	O26	0.237600	0.031580	0.876400
O271	O27	0.183400	0.917500	0.739300
O281	O28	0.166900	0.847070	0.905800
O291	O29	0.094100	0.930380	0.893900
O301	O30	0.347600	0.878650	0.870000
C851	C85	0.334600	0.988400	0.103100
C861	C86	0.311000	0.047700	0.855800
C871	C87	0.337000	0.005300	0.196900
O311	O31	0.389100	0.014720	0.069300
C881	C88	0.306400	0.106000	0.817400
O321	O32	0.383900	0.016550	0.865400
C891	C89	0.261900	0.992900	0.231900
C901	C90	0.416100	0.034900	0.250100
C911	C91	0.239900	0.145500	0.829300
C921	C92	0.365400	0.122000	0.767000
C931	C93	0.266600	0.009700	0.316900
H491	H49	0.208100	0.973000	0.197200
H501	H50	0.466700	0.044200	0.227500
C941	C94	0.420500	0.050800	0.336300
O331	O33	0.461200	0.906180	0.991300
C951	C95	0.232100	0.198100	0.791800
H511	H51	0.200000	0.135600	0.863600
H521	H52	0.412200	0.096700	0.760400
C961	C96	0.356500	0.174900	0.726000
C971	C97	0.346500	0.038600	0.371200
H531	H53	0.215200	0.001500	0.338900
H541	H54	0.474600	0.070200	0.371600
C981	C98	0.288600	0.213200	0.737000
H551	H55	0.188900	0.224400	0.802700
H561	H56	0.396100	0.184700	0.691200
N51	N5	0.351100	0.054300	0.461100
N61	N6	0.274900	0.266900	0.692100
C991	C99	0.316500	0.014300	0.513500
C1001	C100	0.416800	0.097400	0.505600
C1011	C101	0.182700	0.293800	0.667800
C1021	C102	0.349800	0.292100	0.665500
C1031	C103	0.272200	0.034600	0.575100
C1041	C104	0.328500	0.956500	0.506400
C1051	C105	0.480800	0.087700	0.590400
C1061	C106	0.421200	0.149100	0.465300
C1071	C107	0.099700	0.263100	0.634000
C1081	C108	0.178200	0.353400	0.678500
C1091	C109	0.441900	0.299300	0.724500
C1101	C110	0.332100	0.312400	0.577800
H571	H57	0.262800	0.073700	0.579600
C1111	C111	0.241600	0.996700	0.630300
C1121	C112	0.298100	0.918300	0.561000
H581	H58	0.357100	0.942500	0.464700
H591	H59	0.476700	0.054000	0.620500
C1131	C113	0.550800	0.128000	0.630500
C1141	C114	0.490400	0.188700	0.504400
H601	H60	0.376200	0.157400	0.410300
H611	H61	0.103200	0.224100	0.623300
C1151	C115	0.010400	0.289200	0.615400
C1161	C116	0.090200	0.379300	0.657500
H621	H62	0.234500	0.374800	0.699600
H631	H63	0.455900	0.285500	0.782900
C1171	C117	0.513000	0.326500	0.698200
C1181	C118	0.402200	0.339400	0.551000
H641	H64	0.271300	0.307400	0.536800
H651	H65	0.212700	0.010600	0.671800
C1191	C119	0.254500	0.938300	0.623000
H661	H66	0.307200	0.879200	0.555800
H671	H67	0.593200	0.121000	0.687400
C1201	C120	0.557800	0.178300	0.586500
H681	H68	0.492100	0.223200	0.475200
H691	H69	0.954300	0.267500	0.595300
C1211	C121	0.004600	0.348200	0.626900
H701	H70	0.087100	0.418800	0.663700
H711	H71	0.574100	0.331300	0.738900
C1221	C122	0.493300	0.347100	0.610100
H721	H72	0.388300	0.352600	0.492300
C1231	C123	0.225200	0.897900	0.685200
C1241	C124	0.636800	0.220300	0.627100
C1251	C125	0.909300	0.377900	0.608300
C1261	C126	0.564800	0.379000	0.580800
O341	O34	0.247600	0.846300	0.680400
O351	O35	0.679700	0.219400	0.708700
O361	O36	0.659800	0.255600	0.576800
Cd61	Cd6	0.233500	0.806220	0.805110
Cd71	Cd7	0.743430	0.441910	0.583870
O371	O37	0.723800	0.449690	0.436000
O381	O38	0.762400	0.531580	0.623600
O391	O39	0.816600	0.417500	0.760700
O401	O40	0.833100	0.347070	0.594200
O411	O41	0.905900	0.430380	0.606100
O421	O42	0.652400	0.378650	0.630000
C1271	C127	0.665400	0.488400	0.396900
C1281	C128	0.689000	0.547700	0.644200
C1291	C129	0.663000	0.505300	0.303100
O431	O43	0.610900	0.514720	0.430700
C1301	C130	0.693600	0.606000	0.682600
O441	O44	0.616100	0.516550	0.634600
C1311	C131	0.738100	0.492900	0.268100
C1321	C132	0.583900	0.534900	0.249900
C1331	C133	0.760100	0.645500	0.670700
C1341	C134	0.634600	0.622000	0.733000
C1351	C135	0.733400	0.509700	0.183100
H731	H73	0.791900	0.473000	0.302800
H741	H74	0.533300	0.544200	0.272500
C1361	C136	0.579500	0.550800	0.163700
O451	O45	0.538800	0.406180	0.508700
C1371	C137	0.767900	0.698100	0.708200
H751	H75	0.800000	0.635600	0.636400
H761	H76	0.587800	0.596700	0.739600
C1381	C138	0.643500	0.674900	0.774000
C1391	C139	0.653500	0.538600	0.128800
H771	H77	0.784800	0.501500	0.161100
H781	H78	0.525400	0.570200	0.128400
C1401	C140	0.711400	0.713200	0.763000
H791	H79	0.811100	0.724400	0.697300
H801	H80	0.603900	0.684700	0.808800
N71	N7	0.648900	0.554300	0.038900
N81	N8	0.725100	0.766900	0.807900
C1411	C141	0.683500	0.514300	0.986500
C1421	C142	0.583200	0.597400	0.994400
C1431	C143	0.817300	0.793800	0.832200
C1441	C144	0.650200	0.792100	0.834500
C1451	C145	0.727800	0.534600	0.924900
C1461	C146	0.671500	0.456500	0.993600
C1471	C147	0.519200	0.587700	0.909600
C1481	C148	0.578800	0.649100	0.034700
C1491	C149	0.900300	0.763100	0.866000
C1501	C150	0.821800	0.853400	0.821500
C1511	C151	0.558100	0.799300	0.775500
C1521	C152	0.667900	0.812400	0.922200
H811	H81	0.737200	0.573700	0.920400
C1531	C153	0.758400	0.496700	0.869700
C1541	C154	0.701900	0.418300	0.939000
H821	H82	0.642900	0.442500	0.035300
H831	H83	0.523300	0.554000	0.879500
C1551	C155	0.449200	0.628000	0.869500
C1561	C156	0.509600	0.688700	0.995600
H841	H84	0.623800	0.657400	0.089700
H851	H85	0.896800	0.724100	0.876700
C1571	C157	0.989600	0.789200	0.884600
C1581	C158	0.909800	0.879300	0.842500
H861	H86	0.765500	0.874800	0.800400
H871	H87	0.544100	0.785500	0.717100
C1591	C159	0.487000	0.826500	0.801800
C1601	C160	0.597800	0.839400	0.949000
H881	H88	0.728700	0.807400	0.963200
H891	H89	0.787300	0.510600	0.828200
C1611	C161	0.745500	0.438300	0.877000
H901	H90	0.692800	0.379200	0.944200
H911	H91	0.406800	0.621000	0.812600
C1621	C162	0.442200	0.678300	0.913500
H921	H92	0.507900	0.723200	0.024800
H931	H93	0.045700	0.767500	0.904700
C1631	C163	0.995400	0.848200	0.873100
H941	H94	0.912900	0.918800	0.836300
H951	H95	0.425900	0.831300	0.761100
C1641	C164	0.506700	0.847100	0.889900
H961	H96	0.611700	0.852600	0.007700
C1651	C165	0.774800	0.397900	0.814800
C1661	C166	0.363200	0.720300	0.872900
C1671	C167	0.090700	0.877900	0.891700
C1681	C168	0.435200	0.879000	0.919200
O461	O46	0.752400	0.346300	0.819600
O471	O47	0.320300	0.719400	0.791300
O481	O48	0.340200	0.755600	0.923200
Cd81	Cd8	0.766500	0.306220	0.694890
Cd91	Cd9	0.500000	0.000000	0.000000
Cd101	Cd10	0.500000	0.500000	0.500000
