data_YUYLOV_clean_PM
_symmetry_space_group_name_H-M	'P1'
_cell_length_a	14.399700
_cell_length_b	23.362000
_cell_length_c	15.543000
_cell_angle_alpha	90.000000
_cell_angle_beta	106.309000
_cell_angle_gamma	90.000000
_symmetry_Int_Tables_number 1

loop_
_symmetry_equiv_pos_as_xyz
'x,y,z'

loop_
_atom_site_label
_atom_site_type_symbol
_atom_site_fract_x
_atom_site_fract_y
_atom_site_fract_z
Cd11	Cd1	0.258890	0.059070	0.924500
C11	C1	0.417900	0.899700	0.515400
C21	C2	0.481100	0.908300	0.595800
H11	H1	0.475100	0.941800	0.626100
C31	C3	0.553000	0.871900	0.636200
H21	H2	0.594200	0.881300	0.692000
C41	C4	0.566100	0.822300	0.597100
C51	C5	0.501000	0.812600	0.518600
H31	H3	0.507100	0.778300	0.490300
C61	C6	0.422500	0.849000	0.472800
H41	H4	0.378400	0.839000	0.418600
C71	C7	0.645600	0.776400	0.624400
C81	C8	0.344700	0.957400	0.374200
C91	C9	0.417000	0.945200	0.340700
H51	H5	0.470000	0.924600	0.374400
C101	C10	0.413200	0.963600	0.253500
H61	H6	0.465400	0.956900	0.230700
C111	C11	0.337100	0.989900	0.204900
C121	C12	0.264300	0.001100	0.238800
H71	H7	0.211600	0.022100	0.205500
C131	C13	0.266200	0.981900	0.322500
H81	H8	0.211800	0.986100	0.343000
C141	C14	0.335200	0.008200	0.110300
C151	C15	0.314000	0.983800	0.516800
C161	C16	0.263100	0.963500	0.576800
H91	H9	0.247800	0.925000	0.579600
C171	C17	0.235800	0.006600	0.634300
H101	H10	0.208700	0.994700	0.679000
C181	C18	0.249700	0.064400	0.623100
C191	C19	0.295400	0.077100	0.563500
H111	H11	0.307400	0.115700	0.556100
C201	C20	0.327000	0.039000	0.511600
H121	H12	0.358800	0.052600	0.471200
C211	C21	0.218100	0.102200	0.680000
C221	C22	0.644400	0.208900	0.830700
C231	C23	0.665300	0.185400	0.917900
H131	H13	0.726800	0.188100	0.957800
C241	C24	0.593700	0.159300	0.940900
H141	H14	0.606300	0.144800	0.998700
C251	C25	0.503500	0.152800	0.884800
C261	C26	0.483700	0.174500	0.799900
H151	H15	0.421800	0.170700	0.761000
C271	C27	0.553600	0.201700	0.771500
H161	H16	0.540300	0.215300	0.713000
C281	C28	0.426600	0.120500	0.914200
C291	C29	0.709800	0.285700	0.754400
C301	C30	0.639200	0.326500	0.761000
H171	H17	0.594900	0.317500	0.792500
C311	C31	0.636100	0.377800	0.722000
H181	H18	0.588600	0.403500	0.727100
C321	C32	0.694900	0.393500	0.677900
C331	C33	0.767400	0.355300	0.669600
H191	H19	0.811800	0.367300	0.640100
C341	C34	0.774700	0.300000	0.704000
H201	H20	0.819600	0.273800	0.694500
C351	C35	0.697200	0.451500	0.638700
C361	C36	0.817400	0.204900	0.826600
C371	C37	0.897000	0.236500	0.862700
H211	H21	0.892200	0.275500	0.872900
C381	C38	0.985500	0.209900	0.884100
H221	H22	0.040800	0.232100	0.905300
C391	C39	0.996000	0.149800	0.875200
C401	C40	0.911100	0.121300	0.836600
H231	H23	0.913700	0.081900	0.829300
C411	C41	0.820400	0.148400	0.807700
H241	H24	0.765000	0.128500	0.777000
C421	C42	0.089900	0.123500	0.899000
N11	N1	0.351900	0.942600	0.465100
N21	N2	0.721800	0.233100	0.801800
O11	O1	0.684100	0.784500	0.715000
O21	O2	0.666700	0.744400	0.577600
O31	O3	0.395800	0.985500	0.077400
O41	O4	0.272200	0.044800	0.066800
O51	O5	0.182100	0.084700	0.742100
O61	O6	0.245300	0.156300	0.675400
O71	O7	0.447900	0.092600	0.983900
O81	O8	0.342700	0.120700	0.865700
O91	O9	0.621700	0.481000	0.628500
O101	O10	0.773700	0.469600	0.619200
O111	O11	0.092200	0.069600	0.900000
O121	O12	0.166500	0.151800	0.914000
Cd21	Cd2	0.741110	0.559070	0.575500
C431	C43	0.582100	0.399700	0.984600
C441	C44	0.518900	0.408300	0.904200
H251	H25	0.524900	0.441800	0.873900
C451	C45	0.447000	0.371900	0.863800
H261	H26	0.405800	0.381300	0.808000
C461	C46	0.433900	0.322300	0.902900
C471	C47	0.499000	0.312600	0.981400
H271	H27	0.492900	0.278300	0.009700
C481	C48	0.577500	0.349000	0.027200
H281	H28	0.621600	0.339000	0.081400
C491	C49	0.354400	0.276400	0.875600
C501	C50	0.655300	0.457400	0.125800
C511	C51	0.583000	0.445200	0.159300
H291	H29	0.530000	0.424600	0.125600
C521	C52	0.586800	0.463600	0.246500
H301	H30	0.534600	0.456900	0.269300
C531	C53	0.662900	0.489900	0.295100
C541	C54	0.735700	0.501100	0.261200
H311	H31	0.788400	0.522100	0.294500
C551	C55	0.733800	0.481900	0.177500
H321	H32	0.788200	0.486100	0.157000
C561	C56	0.664800	0.508200	0.389700
C571	C57	0.686000	0.483800	0.983200
C581	C58	0.736900	0.463500	0.923200
H331	H33	0.752200	0.425000	0.920400
C591	C59	0.764200	0.506600	0.865700
H341	H34	0.791300	0.494700	0.821000
C601	C60	0.750300	0.564400	0.876900
C611	C61	0.704600	0.577100	0.936500
H351	H35	0.692600	0.615700	0.943900
C621	C62	0.673000	0.539000	0.988400
H361	H36	0.641200	0.552600	0.028800
C631	C63	0.781900	0.602200	0.820000
C641	C64	0.355600	0.708900	0.669300
C651	C65	0.334700	0.685400	0.582100
H371	H37	0.273200	0.688100	0.542200
C661	C66	0.406300	0.659300	0.559100
H381	H38	0.393700	0.644800	0.501300
C671	C67	0.496500	0.652800	0.615200
C681	C68	0.516300	0.674500	0.700100
H391	H39	0.578200	0.670700	0.739000
C691	C69	0.446400	0.701700	0.728500
H401	H40	0.459700	0.715300	0.787000
C701	C70	0.573400	0.620500	0.585800
C711	C71	0.290200	0.785700	0.745600
C721	C72	0.360800	0.826500	0.739000
H411	H41	0.405100	0.817500	0.707500
C731	C73	0.363900	0.877800	0.778000
H421	H42	0.411400	0.903500	0.772900
C741	C74	0.305100	0.893500	0.822100
C751	C75	0.232600	0.855300	0.830400
H431	H43	0.188200	0.867300	0.859900
C761	C76	0.225300	0.800000	0.796000
H441	H44	0.180400	0.773800	0.805500
C771	C77	0.302800	0.951500	0.861300
C781	C78	0.182600	0.704900	0.673400
C791	C79	0.103000	0.736500	0.637300
H451	H45	0.107800	0.775500	0.627100
C801	C80	0.014500	0.709900	0.615900
H461	H46	0.959200	0.732100	0.594700
C811	C81	0.004000	0.649800	0.624800
C821	C82	0.088900	0.621300	0.663400
H471	H47	0.086300	0.581900	0.670700
C831	C83	0.179600	0.648400	0.692300
H481	H48	0.235000	0.628500	0.723000
C841	C84	0.910100	0.623500	0.601000
N31	N3	0.648100	0.442600	0.034900
N41	N4	0.278200	0.733100	0.698200
O131	O13	0.315900	0.284500	0.785000
O141	O14	0.333300	0.244400	0.922400
O151	O15	0.604200	0.485500	0.422600
O161	O16	0.727800	0.544800	0.433200
O171	O17	0.817900	0.584700	0.757900
O181	O18	0.754700	0.656300	0.824600
O191	O19	0.552100	0.592600	0.516100
O201	O20	0.657300	0.620700	0.634300
O211	O21	0.378300	0.981000	0.871500
O221	O22	0.226300	0.969600	0.880800
O231	O23	0.907800	0.569600	0.600000
O241	O24	0.833500	0.651800	0.586000
Cd31	Cd3	0.741110	0.940930	0.075500
C851	C85	0.582100	0.100300	0.484600
C861	C86	0.518900	0.091700	0.404200
H491	H49	0.524900	0.058200	0.373900
C871	C87	0.447000	0.128100	0.363800
H501	H50	0.405800	0.118700	0.308000
C881	C88	0.433900	0.177700	0.402900
C891	C89	0.499000	0.187400	0.481400
H511	H51	0.492900	0.221700	0.509700
C901	C90	0.577500	0.151000	0.527200
H521	H52	0.621600	0.161000	0.581400
C911	C91	0.354400	0.223600	0.375600
C921	C92	0.655300	0.042600	0.625800
C931	C93	0.583000	0.054800	0.659300
H531	H53	0.530000	0.075400	0.625600
C941	C94	0.586800	0.036400	0.746500
H541	H54	0.534600	0.043100	0.769300
C951	C95	0.662900	0.010100	0.795100
C961	C96	0.735700	0.998900	0.761200
H551	H55	0.788400	0.977900	0.794500
C971	C97	0.733800	0.018100	0.677500
H561	H56	0.788200	0.013900	0.657000
C981	C98	0.664800	0.991800	0.889700
C991	C99	0.686000	0.016200	0.483200
C1001	C100	0.736900	0.036500	0.423200
H571	H57	0.752200	0.075000	0.420400
C1011	C101	0.764200	0.993400	0.365700
H581	H58	0.791300	0.005300	0.321000
C1021	C102	0.750300	0.935600	0.376900
C1031	C103	0.704600	0.922900	0.436500
H591	H59	0.692600	0.884300	0.443900
C1041	C104	0.673000	0.961000	0.488400
H601	H60	0.641200	0.947400	0.528800
C1051	C105	0.781900	0.897800	0.320000
C1061	C106	0.355600	0.791100	0.169300
C1071	C107	0.334700	0.814600	0.082100
H611	H61	0.273200	0.811900	0.042200
C1081	C108	0.406300	0.840700	0.059100
H621	H62	0.393700	0.855200	0.001300
C1091	C109	0.496500	0.847200	0.115200
C1101	C110	0.516300	0.825500	0.200100
H631	H63	0.578200	0.829300	0.239000
C1111	C111	0.446400	0.798300	0.228500
H641	H64	0.459700	0.784700	0.287000
C1121	C112	0.573400	0.879500	0.085800
C1131	C113	0.290200	0.714300	0.245600
C1141	C114	0.360800	0.673500	0.239000
H651	H65	0.405100	0.682500	0.207500
C1151	C115	0.363900	0.622200	0.278000
H661	H66	0.411400	0.596500	0.272900
C1161	C116	0.305100	0.606500	0.322100
C1171	C117	0.232600	0.644700	0.330400
H671	H67	0.188200	0.632700	0.359900
C1181	C118	0.225300	0.700000	0.296000
H681	H68	0.180400	0.726200	0.305500
C1191	C119	0.302800	0.548500	0.361300
C1201	C120	0.182600	0.795100	0.173400
C1211	C121	0.103000	0.763500	0.137300
H691	H69	0.107800	0.724500	0.127100
C1221	C122	0.014500	0.790100	0.115900
H701	H70	0.959200	0.767900	0.094700
C1231	C123	0.004000	0.850200	0.124800
C1241	C124	0.088900	0.878700	0.163400
H711	H71	0.086300	0.918100	0.170700
C1251	C125	0.179600	0.851600	0.192300
H721	H72	0.235000	0.871500	0.223000
C1261	C126	0.910100	0.876500	0.101000
N51	N5	0.648100	0.057400	0.534900
N61	N6	0.278200	0.766900	0.198200
O251	O25	0.315900	0.215500	0.285000
O261	O26	0.333300	0.255600	0.422400
O271	O27	0.604200	0.014500	0.922600
O281	O28	0.727800	0.955200	0.933200
O291	O29	0.817900	0.915300	0.257900
O301	O30	0.754700	0.843700	0.324600
O311	O31	0.552100	0.907400	0.016100
O321	O32	0.657300	0.879300	0.134300
O331	O33	0.378300	0.519000	0.371500
O341	O34	0.226300	0.530400	0.380800
O351	O35	0.907800	0.930400	0.100000
O361	O36	0.833500	0.848200	0.086000
Cd41	Cd4	0.258890	0.440930	0.424500
C1271	C127	0.417900	0.600300	0.015400
C1281	C128	0.481100	0.591700	0.095800
H731	H73	0.475100	0.558200	0.126100
C1291	C129	0.553000	0.628100	0.136200
H741	H74	0.594200	0.618700	0.192000
C1301	C130	0.566100	0.677700	0.097100
C1311	C131	0.501000	0.687400	0.018600
H751	H75	0.507100	0.721700	0.990300
C1321	C132	0.422500	0.651000	0.972800
H761	H76	0.378400	0.661000	0.918600
C1331	C133	0.645600	0.723600	0.124400
C1341	C134	0.344700	0.542600	0.874200
C1351	C135	0.417000	0.554800	0.840700
H771	H77	0.470000	0.575400	0.874400
C1361	C136	0.413200	0.536400	0.753500
H781	H78	0.465400	0.543100	0.730700
C1371	C137	0.337100	0.510100	0.704900
C1381	C138	0.264300	0.498900	0.738800
H791	H79	0.211600	0.477900	0.705500
C1391	C139	0.266200	0.518100	0.822500
H801	H80	0.211800	0.513900	0.843000
C1401	C140	0.335200	0.491800	0.610300
C1411	C141	0.314000	0.516200	0.016800
C1421	C142	0.263100	0.536500	0.076800
H811	H81	0.247800	0.575000	0.079600
C1431	C143	0.235800	0.493400	0.134300
H821	H82	0.208700	0.505300	0.179000
C1441	C144	0.249700	0.435600	0.123100
C1451	C145	0.295400	0.422900	0.063500
H831	H83	0.307400	0.384300	0.056100
C1461	C146	0.327000	0.461000	0.011600
H841	H84	0.358800	0.447400	0.971200
C1471	C147	0.218100	0.397800	0.180000
C1481	C148	0.644400	0.291100	0.330700
C1491	C149	0.665300	0.314600	0.417900
H851	H85	0.726800	0.311900	0.457800
C1501	C150	0.593700	0.340700	0.440900
H861	H86	0.606300	0.355200	0.498700
C1511	C151	0.503500	0.347200	0.384800
C1521	C152	0.483700	0.325500	0.299900
H871	H87	0.421800	0.329300	0.261000
C1531	C153	0.553600	0.298300	0.271500
H881	H88	0.540300	0.284700	0.213000
C1541	C154	0.426600	0.379500	0.414200
C1551	C155	0.709800	0.214300	0.254400
C1561	C156	0.639200	0.173500	0.261000
H891	H89	0.594900	0.182500	0.292500
C1571	C157	0.636100	0.122200	0.222000
H901	H90	0.588600	0.096500	0.227100
C1581	C158	0.694900	0.106500	0.177900
C1591	C159	0.767400	0.144700	0.169600
H911	H91	0.811800	0.132700	0.140100
C1601	C160	0.774700	0.200000	0.204000
H921	H92	0.819600	0.226200	0.194500
C1611	C161	0.697200	0.048500	0.138700
C1621	C162	0.817400	0.295100	0.326600
C1631	C163	0.897000	0.263500	0.362700
H931	H93	0.892200	0.224500	0.372900
C1641	C164	0.985500	0.290100	0.384100
H941	H94	0.040800	0.267900	0.405300
C1651	C165	0.996000	0.350200	0.375200
C1661	C166	0.911100	0.378700	0.336600
H951	H95	0.913700	0.418100	0.329300
C1671	C167	0.820400	0.351600	0.307700
H961	H96	0.765000	0.371500	0.277000
C1681	C168	0.089900	0.376500	0.399000
N71	N7	0.351900	0.557400	0.965100
N81	N8	0.721800	0.266900	0.301800
O371	O37	0.684100	0.715500	0.215000
O381	O38	0.666700	0.755600	0.077600
O391	O39	0.395800	0.514500	0.577400
O401	O40	0.272200	0.455200	0.566800
O411	O41	0.182100	0.415300	0.242100
O421	O42	0.245300	0.343700	0.175400
O431	O43	0.447900	0.407400	0.483900
O441	O44	0.342700	0.379300	0.365700
O451	O45	0.621700	0.019000	0.128500
O461	O46	0.773700	0.030400	0.119200
O471	O47	0.092200	0.430400	0.400000
O481	O48	0.166500	0.348200	0.414000
Cd51	Cd5	0.500000	0.000000	0.000000
Cd61	Cd6	0.500000	0.500000	0.500000
