data_YUZBIG_clean_PM
_symmetry_space_group_name_H-M	'P1'
_cell_length_a	9.676700
_cell_length_b	9.676700
_cell_length_c	20.172000
_cell_angle_alpha	90.000000
_cell_angle_beta	90.000000
_cell_angle_gamma	120.000000
_symmetry_Int_Tables_number 1

loop_
_symmetry_equiv_pos_as_xyz
'x,y,z'

loop_
_atom_site_label
_atom_site_type_symbol
_atom_site_fract_x
_atom_site_fract_y
_atom_site_fract_z
Zn11	Zn1	0.935150	0.505540	0.416260
N11	N1	0.347700	0.831100	0.513120
N21	N2	0.407500	0.814400	0.452710
N31	N3	0.141300	0.682500	0.448790
N41	N4	0.086500	0.745600	0.556540
H11	H1	0.989200	0.650800	0.562900
H21	H2	0.119600	0.791000	0.597100
N51	N5	0.216100	0.421100	0.288510
N61	N6	0.031000	0.428100	0.349600
N71	N7	0.961200	0.274800	0.322640
N81	N8	0.061000	0.151500	0.249200
H31	H3	0.956200	0.066500	0.246400
H41	H4	0.090900	0.163700	0.206600
C11	C1	0.188700	0.751200	0.508800
C21	C2	0.281200	0.725400	0.417200
C31	C3	0.292600	0.679500	0.345800
H51	H5	0.272800	0.748300	0.315600
H61	H6	0.402800	0.701700	0.337700
C41	C4	0.179300	0.509200	0.328910
C51	C5	0.077200	0.280000	0.285600
Zn21	Zn2	0.494460	0.429610	0.749590
N91	N9	0.168900	0.516600	0.846450
N101	N10	0.185600	0.593100	0.786040
N111	N11	0.317500	0.458800	0.782120
N121	N12	0.254400	0.340900	0.889870
H71	H7	0.349200	0.338400	0.896230
H81	H8	0.209000	0.328600	0.930430
N131	N13	0.578900	0.795000	0.621840
N141	N14	0.571900	0.602900	0.682930
N151	N15	0.725200	0.686400	0.655970
N161	N16	0.848500	0.909500	0.582530
H91	H9	0.933500	0.889700	0.579730
H101	H10	0.836300	0.927200	0.539930
C61	C6	0.248800	0.437500	0.842130
C71	C7	0.274600	0.555800	0.750530
C81	C8	0.320500	0.613100	0.679130
H111	H11	0.251700	0.524500	0.648930
H121	H12	0.298300	0.701100	0.671030
C91	C9	0.490800	0.670100	0.662240
C101	C10	0.720000	0.797200	0.618930
Zn31	Zn3	0.570390	0.064850	0.082930
N171	N17	0.483400	0.652300	0.179790
N181	N18	0.406900	0.592500	0.119380
N191	N19	0.541200	0.858700	0.115460
N201	N20	0.659100	0.913500	0.223210
H131	H13	0.661600	0.010800	0.229570
H141	H14	0.671400	0.880400	0.263770
N211	N21	0.205000	0.783900	0.955180
N221	N22	0.397100	0.969000	0.016270
N231	N23	0.313600	0.038800	0.989310
N241	N24	0.090500	0.939000	0.915870
H151	H15	0.110300	0.043800	0.913070
H161	H16	0.072800	0.909100	0.873270
C111	C11	0.562500	0.811300	0.175470
C121	C12	0.444200	0.718800	0.083870
C131	C13	0.386900	0.707400	0.012470
H171	H17	0.475500	0.727200	0.982270
H181	H18	0.298900	0.597200	0.004370
C141	C14	0.329900	0.820700	0.995580
C151	C15	0.202800	0.922800	0.952270
Zn41	Zn4	0.505540	0.935150	0.583740
N251	N25	0.831100	0.347700	0.486880
N261	N26	0.814400	0.407500	0.547290
N271	N27	0.682500	0.141300	0.551210
N281	N28	0.745600	0.086500	0.443460
H191	H19	0.650800	0.989200	0.437100
H201	H20	0.791000	0.119600	0.402900
N291	N29	0.421100	0.216100	0.711490
N301	N30	0.428100	0.031000	0.650400
N311	N31	0.274800	0.961200	0.677360
N321	N32	0.151500	0.061000	0.750800
H211	H21	0.066500	0.956200	0.753600
H221	H22	0.163700	0.090900	0.793400
C161	C16	0.751200	0.188700	0.491200
C171	C17	0.725400	0.281200	0.582800
C181	C18	0.679500	0.292600	0.654200
H231	H23	0.748300	0.272800	0.684400
H241	H24	0.701700	0.402800	0.662300
C191	C19	0.509200	0.179300	0.671090
C201	C20	0.280000	0.077200	0.714400
Zn51	Zn5	0.429610	0.494460	0.250410
N331	N33	0.516600	0.168900	0.153550
N341	N34	0.593100	0.185600	0.213960
N351	N35	0.458800	0.317500	0.217880
N361	N36	0.340900	0.254400	0.110130
H251	H25	0.338400	0.349200	0.103770
H261	H26	0.328600	0.209000	0.069570
N371	N37	0.795000	0.578900	0.378160
N381	N38	0.602900	0.571900	0.317070
N391	N39	0.686400	0.725200	0.344030
N401	N40	0.909500	0.848500	0.417470
H271	H27	0.889700	0.933500	0.420270
H281	H28	0.927200	0.836300	0.460070
C211	C21	0.437500	0.248800	0.157870
C221	C22	0.555800	0.274600	0.249470
C231	C23	0.613100	0.320500	0.320870
H291	H29	0.524500	0.251700	0.351070
H301	H30	0.701100	0.298300	0.328970
C241	C24	0.670100	0.490800	0.337760
C251	C25	0.797200	0.720000	0.381070
Zn61	Zn6	0.064850	0.570390	0.917070
N411	N41	0.652300	0.483400	0.820210
N421	N42	0.592500	0.406900	0.880620
N431	N43	0.858700	0.541200	0.884540
N441	N44	0.913500	0.659100	0.776790
H311	H31	0.010800	0.661600	0.770430
H321	H32	0.880400	0.671400	0.736230
N451	N45	0.783900	0.205000	0.044820
N461	N46	0.969000	0.397100	0.983730
N471	N47	0.038800	0.313600	0.010690
N481	N48	0.939000	0.090500	0.084130
H331	H33	0.043800	0.110300	0.086930
H341	H34	0.909100	0.072800	0.126730
C261	C26	0.811300	0.562500	0.824530
C271	C27	0.718800	0.444200	0.916130
C281	C28	0.707400	0.386900	0.987530
H351	H35	0.727200	0.475500	0.017730
H361	H36	0.597200	0.298900	0.995630
C291	C29	0.820700	0.329900	0.004420
C301	C30	0.922800	0.202800	0.047730
