data_YUZBUS_clean_PM
_symmetry_space_group_name_H-M	'P1'
_cell_length_a	9.663000
_cell_length_b	9.663000
_cell_length_c	20.224000
_cell_angle_alpha	90.000000
_cell_angle_beta	90.000000
_cell_angle_gamma	120.000000
_symmetry_Int_Tables_number 1

loop_
_symmetry_equiv_pos_as_xyz
'x,y,z'

loop_
_atom_site_label
_atom_site_type_symbol
_atom_site_fract_x
_atom_site_fract_y
_atom_site_fract_z
Zn11	Zn1	0.935470	0.506410	0.416230
N11	N1	0.348000	0.830300	0.513560
N21	N2	0.408400	0.812300	0.453200
N31	N3	0.141900	0.683100	0.449000
N41	N4	0.086700	0.745900	0.556700
H11	H1	0.987700	0.651900	0.562400
H21	H2	0.119100	0.789000	0.597900
N51	N5	0.216500	0.420000	0.289000
N61	N6	0.030100	0.426300	0.350500
N71	N7	0.960600	0.274200	0.322500
N81	N8	0.059500	0.150200	0.250600
H31	H3	0.955100	0.076600	0.234100
H41	H4	0.116700	0.164900	0.212600
C11	C1	0.190000	0.751600	0.509000
C21	C2	0.282400	0.724700	0.417500
C31	C3	0.293300	0.679300	0.346800
H51	H5	0.273600	0.748400	0.316700
H61	H6	0.403500	0.701200	0.338600
C41	C4	0.179900	0.509800	0.330100
C51	C5	0.076700	0.279000	0.286400
Zn21	Zn2	0.493590	0.429060	0.749560
N91	N9	0.169700	0.517700	0.846890
N101	N10	0.187700	0.596100	0.786530
N111	N11	0.316900	0.458800	0.782330
N121	N12	0.254100	0.340800	0.890030
H71	H7	0.348100	0.335800	0.895730
H81	H8	0.211000	0.330100	0.931230
N131	N13	0.580000	0.796500	0.622330
N141	N14	0.573700	0.603800	0.683830
N151	N15	0.725800	0.686400	0.655830
N161	N16	0.849800	0.909300	0.583930
H91	H9	0.923400	0.878500	0.567430
H101	H10	0.835100	0.951800	0.545930
C61	C6	0.248400	0.438400	0.842330
C71	C7	0.275300	0.557700	0.750830
C81	C8	0.320700	0.614000	0.680130
H111	H11	0.251600	0.525200	0.650030
H121	H12	0.298800	0.702300	0.671930
C91	C9	0.490200	0.670100	0.663430
C101	C10	0.721000	0.797700	0.619730
Zn31	Zn3	0.570940	0.064530	0.082900
N171	N17	0.482300	0.652000	0.180230
N181	N18	0.403900	0.591600	0.119870
N191	N19	0.541200	0.858100	0.115670
N201	N20	0.659200	0.913300	0.223370
H131	H13	0.664200	0.012300	0.229070
H141	H14	0.669900	0.880900	0.264570
N211	N21	0.203500	0.783500	0.955670
N221	N22	0.396200	0.969900	0.017170
N231	N23	0.313600	0.039400	0.989170
N241	N24	0.090700	0.940500	0.917270
H151	H15	0.121500	0.044900	0.900770
H161	H16	0.048200	0.883300	0.879270
C111	C11	0.561600	0.810000	0.175670
C121	C12	0.442300	0.717600	0.084170
C131	C13	0.386000	0.706700	0.013470
H171	H17	0.474800	0.726400	0.983370
H181	H18	0.297700	0.596500	0.005270
C141	C14	0.329900	0.820100	0.996770
C151	C15	0.202300	0.923300	0.953070
Zn41	Zn4	0.506410	0.935470	0.583770
N251	N25	0.830300	0.348000	0.486440
N261	N26	0.812300	0.408400	0.546800
N271	N27	0.683100	0.141900	0.551000
N281	N28	0.745900	0.086700	0.443300
H191	H19	0.651900	0.987700	0.437600
H201	H20	0.789000	0.119100	0.402100
N291	N29	0.420000	0.216500	0.711000
N301	N30	0.426300	0.030100	0.649500
N311	N31	0.274200	0.960600	0.677500
N321	N32	0.150200	0.059500	0.749400
H211	H21	0.076600	0.955100	0.765900
H221	H22	0.164900	0.116700	0.787400
C161	C16	0.751600	0.190000	0.491000
C171	C17	0.724700	0.282400	0.582500
C181	C18	0.679300	0.293300	0.653200
H231	H23	0.748400	0.273600	0.683300
H241	H24	0.701200	0.403500	0.661400
C191	C19	0.509800	0.179900	0.669900
C201	C20	0.279000	0.076700	0.713600
Zn51	Zn5	0.429060	0.493590	0.250440
N331	N33	0.517700	0.169700	0.153110
N341	N34	0.596100	0.187700	0.213470
N351	N35	0.458800	0.316900	0.217670
N361	N36	0.340800	0.254100	0.109970
H251	H25	0.335800	0.348100	0.104270
H261	H26	0.330100	0.211000	0.068770
N371	N37	0.796500	0.580000	0.377670
N381	N38	0.603800	0.573700	0.316170
N391	N39	0.686400	0.725800	0.344170
N401	N40	0.909300	0.849800	0.416070
H271	H27	0.878500	0.923400	0.432570
H281	H28	0.951800	0.835100	0.454070
C211	C21	0.438400	0.248400	0.157670
C221	C22	0.557700	0.275300	0.249170
C231	C23	0.614000	0.320700	0.319870
H291	H29	0.525200	0.251600	0.349970
H301	H30	0.702300	0.298800	0.328070
C241	C24	0.670100	0.490200	0.336570
C251	C25	0.797700	0.721000	0.380270
Zn61	Zn6	0.064530	0.570940	0.917100
N411	N41	0.652000	0.482300	0.819770
N421	N42	0.591600	0.403900	0.880130
N431	N43	0.858100	0.541200	0.884330
N441	N44	0.913300	0.659200	0.776630
H311	H31	0.012300	0.664200	0.770930
H321	H32	0.880900	0.669900	0.735430
N451	N45	0.783500	0.203500	0.044330
N461	N46	0.969900	0.396200	0.982830
N471	N47	0.039400	0.313600	0.010830
N481	N48	0.940500	0.090700	0.082730
H331	H33	0.044900	0.121500	0.099230
H341	H34	0.883300	0.048200	0.120730
C261	C26	0.810000	0.561600	0.824330
C271	C27	0.717600	0.442300	0.915830
C281	C28	0.706700	0.386000	0.986530
H351	H35	0.726400	0.474800	0.016630
H361	H36	0.596500	0.297700	0.994730
C291	C29	0.820100	0.329900	0.003230
C301	C30	0.923300	0.202300	0.046930
