data_YUZCAZ_clean_PM
_symmetry_space_group_name_H-M	'P1'
_cell_length_a	9.689600
_cell_length_b	9.689600
_cell_length_c	20.153000
_cell_angle_alpha	90.000000
_cell_angle_beta	90.000000
_cell_angle_gamma	120.000000
_symmetry_Int_Tables_number 1

loop_
_symmetry_equiv_pos_as_xyz
'x,y,z'

loop_
_atom_site_label
_atom_site_type_symbol
_atom_site_fract_x
_atom_site_fract_y
_atom_site_fract_z
Zn11	Zn1	0.936740	0.506900	0.415980
N11	N1	0.348500	0.831500	0.513490
N21	N2	0.409000	0.813500	0.453290
N31	N3	0.142900	0.682500	0.449010
N41	N4	0.088200	0.745700	0.556860
H11	H1	0.987400	0.653400	0.561300
H21	H2	0.120000	0.784700	0.598600
N51	N5	0.216800	0.419900	0.289020
N61	N6	0.031500	0.426900	0.350250
N71	N7	0.962900	0.275900	0.322200
N81	N8	0.059300	0.150500	0.249700
H31	H3	0.958100	0.083600	0.229000
H41	H4	0.124900	0.164800	0.214700
C11	C1	0.190200	0.751200	0.509300
C21	C2	0.282900	0.724100	0.417800
C31	C3	0.293900	0.678100	0.347100
H51	H5	0.274500	0.747000	0.316800
H61	H6	0.403900	0.700100	0.339100
C41	C4	0.181000	0.508600	0.330100
C51	C5	0.076800	0.278600	0.286100
Zn21	Zn2	0.493100	0.429840	0.749310
N91	N9	0.168500	0.517000	0.846820
N101	N10	0.186500	0.595500	0.786620
N111	N11	0.317500	0.460400	0.782340
N121	N12	0.254300	0.342500	0.890190
H71	H7	0.346600	0.334000	0.894630
H81	H8	0.215300	0.335300	0.931930
N131	N13	0.580100	0.796900	0.622350
N141	N14	0.573100	0.604600	0.683580
N151	N15	0.724100	0.687000	0.655530
N161	N16	0.849500	0.908800	0.583030
H91	H9	0.916400	0.874500	0.562330
H101	H10	0.835200	0.960100	0.548030
C61	C6	0.248800	0.439000	0.842630
C71	C7	0.275900	0.558800	0.751130
C81	C8	0.321900	0.615800	0.680430
H111	H11	0.253000	0.527500	0.650130
H121	H12	0.299900	0.703800	0.672430
C91	C9	0.491400	0.672400	0.663430
C101	C10	0.721400	0.798200	0.619430
Zn31	Zn3	0.570160	0.063260	0.082650
N171	N17	0.483000	0.651500	0.180160
N181	N18	0.404500	0.591000	0.119960
N191	N19	0.539600	0.857100	0.115680
N201	N20	0.657500	0.911800	0.223530
H131	H13	0.666000	0.012600	0.227970
H141	H14	0.664700	0.880000	0.265270
N211	N21	0.203100	0.783200	0.955690
N221	N22	0.395400	0.968500	0.016920
N231	N23	0.313000	0.037100	0.988870
N241	N24	0.091200	0.940700	0.916370
H151	H15	0.125500	0.041900	0.895670
H161	H16	0.039900	0.875100	0.881370
C111	C11	0.561000	0.809800	0.175970
C121	C12	0.441200	0.717100	0.084470
C131	C13	0.384200	0.706100	0.013770
H171	H17	0.472500	0.725500	0.983470
H181	H18	0.296200	0.596100	0.005770
C141	C14	0.327600	0.819000	0.996770
C151	C15	0.201800	0.923200	0.952770
Zn41	Zn4	0.506900	0.936740	0.584020
N251	N25	0.831500	0.348500	0.486510
N261	N26	0.813500	0.409000	0.546710
N271	N27	0.682500	0.142900	0.550990
N281	N28	0.745700	0.088200	0.443140
H191	H19	0.653400	0.987400	0.438700
H201	H20	0.784700	0.120000	0.401400
N291	N29	0.419900	0.216800	0.710980
N301	N30	0.426900	0.031500	0.649750
N311	N31	0.275900	0.962900	0.677800
N321	N32	0.150500	0.059300	0.750300
H211	H21	0.083600	0.958100	0.771000
H221	H22	0.164800	0.124900	0.785300
C161	C16	0.751200	0.190200	0.490700
C171	C17	0.724100	0.282900	0.582200
C181	C18	0.678100	0.293900	0.652900
H231	H23	0.747000	0.274500	0.683200
H241	H24	0.700100	0.403900	0.660900
C191	C19	0.508600	0.181000	0.669900
C201	C20	0.278600	0.076800	0.713900
Zn51	Zn5	0.429840	0.493100	0.250690
N331	N33	0.517000	0.168500	0.153180
N341	N34	0.595500	0.186500	0.213380
N351	N35	0.460400	0.317500	0.217660
N361	N36	0.342500	0.254300	0.109810
H251	H25	0.334000	0.346600	0.105370
H261	H26	0.335300	0.215300	0.068070
N371	N37	0.796900	0.580100	0.377650
N381	N38	0.604600	0.573100	0.316420
N391	N39	0.687000	0.724100	0.344470
N401	N40	0.908800	0.849500	0.416970
H271	H27	0.874500	0.916400	0.437670
H281	H28	0.960100	0.835200	0.451970
C211	C21	0.439000	0.248800	0.157370
C221	C22	0.558800	0.275900	0.248870
C231	C23	0.615800	0.321900	0.319570
H291	H29	0.527500	0.253000	0.349870
H301	H30	0.703800	0.299900	0.327570
C241	C24	0.672400	0.491400	0.336570
C251	C25	0.798200	0.721400	0.380570
Zn61	Zn6	0.063260	0.570160	0.917350
N411	N41	0.651500	0.483000	0.819840
N421	N42	0.591000	0.404500	0.880040
N431	N43	0.857100	0.539600	0.884320
N441	N44	0.911800	0.657500	0.776470
H311	H31	0.012600	0.666000	0.772030
H321	H32	0.880000	0.664700	0.734730
N451	N45	0.783200	0.203100	0.044310
N461	N46	0.968500	0.395400	0.983080
N471	N47	0.037100	0.313000	0.011130
N481	N48	0.940700	0.091200	0.083630
H331	H33	0.041900	0.125500	0.104330
H341	H34	0.875100	0.039900	0.118630
C261	C26	0.809800	0.561000	0.824030
C271	C27	0.717100	0.441200	0.915530
C281	C28	0.706100	0.384200	0.986230
H351	H35	0.725500	0.472500	0.016530
H361	H36	0.596100	0.296200	0.994230
C291	C29	0.819000	0.327600	0.003230
C301	C30	0.923200	0.201800	0.047230
