data_YUZRAO_clean_PM
_symmetry_space_group_name_H-M	'P1'
_cell_length_a	11.579100
_cell_length_b	15.262300
_cell_length_c	19.248300
_cell_angle_alpha	70.394000
_cell_angle_beta	76.587000
_cell_angle_gamma	82.732000
_symmetry_Int_Tables_number 1

loop_
_symmetry_equiv_pos_as_xyz
'x,y,z'

loop_
_atom_site_label
_atom_site_type_symbol
_atom_site_fract_x
_atom_site_fract_y
_atom_site_fract_z
C11	C1	0.862000	0.698200	0.311300
H11	H1	0.789800	0.705100	0.296200
C21	C2	0.944000	0.766700	0.273300
H21	H2	0.926000	0.818200	0.234000
C31	C3	0.052700	0.757300	0.294400
C41	C4	0.072900	0.679900	0.355100
H31	H3	0.143500	0.671800	0.372200
C51	C5	0.986300	0.615200	0.389600
H41	H4	0.001500	0.563500	0.429500
C61	C6	0.145600	0.826800	0.254800
C71	C7	0.152800	0.879500	0.179100
H51	H5	0.098300	0.872400	0.153000
C81	C8	0.241200	0.942500	0.142900
H61	H6	0.244900	0.977900	0.092600
C91	C9	0.324300	0.953300	0.180900
C101	C10	0.317200	0.900100	0.255800
H71	H7	0.372500	0.906400	0.281800
C111	C11	0.228900	0.837800	0.292400
H81	H8	0.225100	0.802800	0.342700
C121	C12	0.416600	0.022300	0.143100
C131	C13	0.562600	0.914100	0.084900
H91	H9	0.616300	0.925400	0.036300
H101	H10	0.494400	0.884300	0.083400
C141	C14	0.624400	0.849600	0.144600
H111	H11	0.691800	0.878800	0.146500
H121	H12	0.650600	0.793000	0.132900
H131	H13	0.570400	0.835700	0.192500
C151	C15	0.585400	0.080500	0.073200
H141	H14	0.660400	0.085800	0.042100
C161	C16	0.421000	0.110900	0.143100
C171	C17	0.330000	0.166300	0.179900
C181	C18	0.295700	0.257900	0.141100
H151	H15	0.330700	0.284600	0.090700
C191	C19	0.210400	0.309000	0.177100
H161	H16	0.187900	0.369300	0.150100
C201	C20	0.157200	0.271900	0.253100
C211	C21	0.192600	0.180400	0.291700
H171	H17	0.158400	0.154100	0.342200
C221	C22	0.276700	0.128900	0.256300
H181	H18	0.298600	0.068500	0.283300
C231	C23	0.069300	0.327000	0.292300
C241	C24	0.992000	0.393400	0.255500
H191	H19	0.994800	0.404700	0.204500
C251	C25	0.909600	0.443200	0.295500
H201	H20	0.858800	0.488100	0.269800
C261	C26	0.976900	0.366900	0.404000
H211	H21	0.973400	0.357700	0.454700
C271	C27	0.061500	0.314900	0.367900
H221	H22	0.113000	0.271900	0.394500
C281	C28	0.580100	0.319900	0.947300
C291	C29	0.536500	0.343400	0.876700
C301	C30	0.606900	0.317700	0.815900
H231	H23	0.678200	0.282900	0.821000
C311	C31	0.569300	0.344500	0.748500
H241	H24	0.617500	0.330100	0.707400
C321	C32	0.460400	0.392600	0.741300
C331	C33	0.388600	0.413500	0.803600
H251	H25	0.314100	0.443500	0.799900
C341	C34	0.427100	0.390200	0.870200
H261	H26	0.379700	0.405800	0.910900
C351	C35	0.421600	0.425300	0.667300
C361	C36	0.760100	0.442600	0.022500
C371	C37	0.884400	0.473800	0.010800
C381	C38	0.979000	0.407300	0.018700
H271	H27	0.964500	0.344700	0.031400
C391	C39	0.906400	0.567400	0.992000
H281	H28	0.844200	0.612600	0.986700
C401	C40	0.529500	0.614500	0.829000
C411	C41	0.580900	0.601500	0.753100
C421	C42	0.684700	0.545100	0.743300
H291	H29	0.723500	0.517000	0.783100
C431	C43	0.729100	0.531400	0.674700
H301	H30	0.799700	0.495900	0.667700
C441	C44	0.668700	0.570400	0.615740
C451	C45	0.565500	0.626500	0.625500
H311	H31	0.525600	0.653600	0.586100
C461	C46	0.523000	0.641400	0.693500
H321	H32	0.454100	0.679000	0.699700
C471	C47	0.711100	0.549100	0.543100
C481	C48	0.667600	0.323000	0.516200
C491	C49	0.567800	0.257000	0.552800
H331	H33	0.578800	0.209100	0.529600
H341	H34	0.493100	0.290800	0.546600
H351	H35	0.568000	0.229300	0.605600
Co11	Co1	0.615050	0.269970	0.081870
Co21	Co2	0.768560	0.508080	0.421990
N11	N1	0.522300	0.003900	0.097800
N21	N2	0.527500	0.147500	0.098890
N31	N3	0.900200	0.429500	0.368990
N41	N4	0.882400	0.623000	0.368690
O11	O1	0.524300	0.356710	0.998290
O21	O2	0.666600	0.262340	0.961140
O31	O3	0.312500	0.445030	0.667910
O41	O4	0.501800	0.429550	0.609330
O51	O5	0.552400	0.550340	0.886130
O61	O6	0.468700	0.690600	0.827480
O71	O7	0.644100	0.577730	0.493670
O81	O8	0.807300	0.504960	0.529640
O91	O9	0.680500	0.504270	0.002270
O101	O10	0.748800	0.356500	0.052230
O111	O11	0.642300	0.407220	0.475530
O121	O12	0.769400	0.294600	0.524900
C501	C50	0.138000	0.301800	0.688700
H361	H36	0.210200	0.294900	0.703800
C511	C51	0.056000	0.233300	0.726700
H371	H37	0.074000	0.181800	0.766000
C521	C52	0.947300	0.242700	0.705600
C531	C53	0.927100	0.320100	0.644900
H381	H38	0.856500	0.328200	0.627800
C541	C54	0.013700	0.384800	0.610400
H391	H39	0.998500	0.436500	0.570500
C551	C55	0.854400	0.173200	0.745200
C561	C56	0.847200	0.120500	0.820900
H401	H40	0.901700	0.127600	0.847000
C571	C57	0.758800	0.057500	0.857100
H411	H41	0.755100	0.022100	0.907400
C581	C58	0.675700	0.046700	0.819100
C591	C59	0.682800	0.099900	0.744200
H421	H42	0.627500	0.093600	0.718200
C601	C60	0.771100	0.162200	0.707600
H431	H43	0.774900	0.197200	0.657300
C611	C61	0.583400	0.977700	0.856900
C621	C62	0.437400	0.085900	0.915100
H441	H44	0.383700	0.074600	0.963700
H451	H45	0.505600	0.115700	0.916600
C631	C63	0.375600	0.150400	0.855400
H461	H46	0.308200	0.121200	0.853500
H471	H47	0.349400	0.207000	0.867100
H481	H48	0.429600	0.164300	0.807500
C641	C64	0.414600	0.919500	0.926800
H491	H49	0.339600	0.914200	0.957900
C651	C65	0.579000	0.889100	0.856900
C661	C66	0.670000	0.833700	0.820100
C671	C67	0.704300	0.742100	0.858900
H501	H50	0.669300	0.715400	0.909300
C681	C68	0.789600	0.691000	0.822900
H511	H51	0.812100	0.630700	0.849900
C691	C69	0.842800	0.728100	0.746900
C701	C70	0.807400	0.819600	0.708300
H521	H52	0.841600	0.845900	0.657800
C711	C71	0.723300	0.871100	0.743700
H531	H53	0.701400	0.931500	0.716700
C721	C72	0.930700	0.673000	0.707700
C731	C73	0.008000	0.606600	0.744500
H541	H54	0.005200	0.595300	0.795500
C741	C74	0.090400	0.556800	0.704500
H551	H55	0.141200	0.511900	0.730200
C751	C75	0.023100	0.633100	0.596000
H561	H56	0.026600	0.642300	0.545300
C761	C76	0.938500	0.685100	0.632100
H571	H57	0.887000	0.728100	0.605500
C771	C77	0.419900	0.680100	0.052700
C781	C78	0.463500	0.656600	0.123300
C791	C79	0.393100	0.682300	0.184100
H581	H58	0.321800	0.717100	0.179000
C801	C80	0.430700	0.655500	0.251500
H591	H59	0.382500	0.669900	0.292600
C811	C81	0.539600	0.607400	0.258700
C821	C82	0.611400	0.586500	0.196400
H601	H60	0.685900	0.556500	0.200100
C831	C83	0.572900	0.609800	0.129800
H611	H61	0.620300	0.594200	0.089100
C841	C84	0.578400	0.574700	0.332700
C851	C85	0.239900	0.557400	0.977500
C861	C86	0.115600	0.526200	0.989200
C871	C87	0.021000	0.592700	0.981300
H621	H62	0.035500	0.655300	0.968600
C881	C88	0.093600	0.432600	0.008000
H631	H63	0.155800	0.387400	0.013300
C891	C89	0.470500	0.385500	0.171000
C901	C90	0.419100	0.398500	0.246900
C911	C91	0.315300	0.454900	0.256700
H641	H64	0.276500	0.483000	0.216900
C921	C92	0.270900	0.468600	0.325300
H651	H65	0.200300	0.504100	0.332300
C931	C93	0.331300	0.429600	0.384260
C941	C94	0.434500	0.373500	0.374500
H661	H66	0.474400	0.346400	0.413900
C951	C95	0.477000	0.358600	0.306500
H671	H67	0.545900	0.321000	0.300300
C961	C96	0.288900	0.450900	0.456900
C971	C97	0.332400	0.677000	0.483800
C981	C98	0.432200	0.743000	0.447200
H681	H68	0.421200	0.790900	0.470400
H691	H69	0.506900	0.709200	0.453400
H701	H70	0.432000	0.770700	0.394400
Co31	Co3	0.384950	0.730030	0.918130
Co41	Co4	0.231440	0.491920	0.578010
N51	N5	0.477700	0.996100	0.902200
N61	N6	0.472500	0.852500	0.901110
N71	N7	0.099800	0.570500	0.631010
N81	N8	0.117600	0.377000	0.631310
O131	O13	0.475700	0.643290	0.001710
O141	O14	0.333400	0.737660	0.038860
O151	O15	0.687500	0.554970	0.332090
O161	O16	0.498200	0.570450	0.390670
O171	O17	0.447600	0.449660	0.113870
O181	O18	0.531300	0.309400	0.172520
O191	O19	0.355900	0.422270	0.506330
O201	O20	0.192700	0.495040	0.470360
O211	O21	0.319500	0.495730	0.997730
O221	O22	0.251200	0.643500	0.947770
O231	O23	0.357700	0.592780	0.524470
O241	O24	0.230600	0.705400	0.475100
Co51	Co5	0.500000	0.500000	0.000000
Co61	Co6	0.500000	0.500000	0.500000
