data_YUZRES_clean_PM
_symmetry_space_group_name_H-M	'P1'
_cell_length_a	11.578400
_cell_length_b	15.308100
_cell_length_c	19.258000
_cell_angle_alpha	70.388000
_cell_angle_beta	76.659000
_cell_angle_gamma	83.048000
_symmetry_Int_Tables_number 1

loop_
_symmetry_equiv_pos_as_xyz
'x,y,z'

loop_
_atom_site_label
_atom_site_type_symbol
_atom_site_fract_x
_atom_site_fract_y
_atom_site_fract_z
C11	C1	0.864200	0.695300	0.311800
H11	H1	0.792700	0.701600	0.295900
C21	C2	0.946500	0.765200	0.273100
H21	H2	0.928400	0.816500	0.233900
C31	C3	0.054200	0.756100	0.294600
C41	C4	0.073900	0.679400	0.354900
H31	H3	0.144300	0.671500	0.372100
C51	C5	0.986800	0.614000	0.389500
H41	H4	0.002600	0.562300	0.429100
C61	C6	0.147000	0.825100	0.255900
C71	C7	0.154800	0.877500	0.180400
H51	H5	0.101300	0.870100	0.153700
C81	C8	0.244300	0.941600	0.145100
H61	H6	0.250100	0.975900	0.094500
C91	C9	0.322600	0.954500	0.183300
C101	C10	0.315900	0.901900	0.257300
H71	H7	0.371500	0.908900	0.282800
C111	C11	0.227400	0.838000	0.295300
H81	H8	0.222100	0.804600	0.346100
C121	C12	0.416500	0.023300	0.145300
C131	C13	0.562300	0.916100	0.085600
H91	H9	0.616500	0.928200	0.037200
H101	H10	0.494600	0.886000	0.083600
C141	C14	0.623500	0.852200	0.145300
H111	H11	0.685200	0.884100	0.151300
H121	H12	0.657500	0.798900	0.130900
H131	H13	0.567000	0.832700	0.192000
C151	C15	0.583700	0.083400	0.074100
H141	H14	0.658100	0.089700	0.042200
C161	C16	0.420600	0.113000	0.144700
C171	C17	0.330100	0.168400	0.181000
C181	C18	0.295100	0.257300	0.142900
H151	H15	0.329800	0.284100	0.092500
C191	C19	0.208000	0.307900	0.179100
H161	H16	0.184600	0.367600	0.152100
C201	C20	0.155600	0.270800	0.254600
C211	C21	0.192500	0.181200	0.293500
H171	H17	0.159600	0.155400	0.344300
C221	C22	0.276500	0.130100	0.258200
H181	H18	0.298400	0.069900	0.285000
C231	C23	0.067200	0.326600	0.293100
C241	C24	0.989400	0.390900	0.256900
H191	H19	0.991100	0.400400	0.206400
C251	C25	0.907600	0.442100	0.295400
H201	H20	0.858500	0.487300	0.268800
C261	C26	0.974500	0.366400	0.404900
H211	H21	0.970800	0.357800	0.455500
C271	C27	0.059400	0.314600	0.369600
H221	H22	0.110800	0.272100	0.396400
C281	C28	0.578300	0.319300	0.948200
C291	C29	0.535300	0.342800	0.876600
C301	C30	0.605800	0.316400	0.817600
H231	H23	0.676400	0.281300	0.823600
C311	C31	0.568700	0.343800	0.748600
H241	H24	0.616700	0.329900	0.707400
C321	C32	0.459900	0.391800	0.742200
C331	C33	0.386600	0.412900	0.803600
H251	H25	0.312200	0.442500	0.799600
C341	C34	0.426300	0.389200	0.870900
H261	H26	0.379500	0.404600	0.911700
C351	C35	0.421700	0.423500	0.667700
C361	C36	0.759000	0.442100	0.022300
C371	C37	0.884300	0.472700	0.010800
C381	C38	0.978500	0.406800	0.019800
H271	H27	0.963700	0.344200	0.033800
C391	C39	0.905000	0.567100	0.991600
H281	H28	0.842500	0.611600	0.986600
C401	C40	0.531800	0.612200	0.829800
C411	C41	0.583600	0.598500	0.753500
C421	C42	0.685900	0.544800	0.742900
H291	H29	0.725600	0.517900	0.782400
C431	C43	0.731000	0.530000	0.674100
H301	H30	0.800800	0.494000	0.667400
C441	C44	0.669800	0.570100	0.614900
C451	C45	0.565500	0.624900	0.625900
H311	H31	0.524200	0.650600	0.587100
C461	C46	0.523800	0.641100	0.693000
H321	H32	0.456500	0.679800	0.699100
C471	C47	0.711700	0.548300	0.542500
C481	C48	0.663600	0.322900	0.515200
C491	C49	0.566000	0.256200	0.553900
H331	H33	0.572200	0.211100	0.528400
H341	H34	0.490400	0.289600	0.552800
H351	H35	0.573100	0.225300	0.605200
Co11	Co1	0.613320	0.271550	0.082280
Co21	Co2	0.767330	0.508000	0.421770
N11	N1	0.521200	0.005100	0.099500
N21	N2	0.526200	0.149100	0.100300
N31	N3	0.896700	0.429000	0.369300
N41	N4	0.882300	0.620900	0.369400
O11	O1	0.522800	0.356400	0.998310
O21	O2	0.664600	0.262800	0.962000
O31	O3	0.311600	0.444100	0.669180
O41	O4	0.502600	0.428800	0.609620
O51	O5	0.554500	0.549000	0.886210
O61	O6	0.468200	0.686600	0.828600
O71	O7	0.644400	0.577700	0.494000
O81	O8	0.806700	0.503500	0.529430
O91	O9	0.680300	0.503100	0.003800
O101	O10	0.748700	0.356100	0.050100
O111	O11	0.640700	0.408000	0.474170
O121	O12	0.766500	0.294400	0.525100
C501	C50	0.135800	0.304700	0.688200
H361	H36	0.207300	0.298400	0.704100
C511	C51	0.053500	0.234800	0.726900
H371	H37	0.071600	0.183500	0.766100
C521	C52	0.945800	0.243900	0.705400
C531	C53	0.926100	0.320600	0.645100
H381	H38	0.855700	0.328500	0.627900
C541	C54	0.013200	0.386000	0.610500
H391	H39	0.997400	0.437700	0.570900
C551	C55	0.853000	0.174900	0.744100
C561	C56	0.845200	0.122500	0.819600
H401	H40	0.898700	0.129900	0.846300
C571	C57	0.755700	0.058400	0.854900
H411	H41	0.749900	0.024100	0.905500
C581	C58	0.677400	0.045500	0.816700
C591	C59	0.684100	0.098100	0.742700
H421	H42	0.628500	0.091100	0.717200
C601	C60	0.772600	0.162000	0.704700
H431	H43	0.777900	0.195400	0.653900
C611	C61	0.583500	0.976700	0.854700
C621	C62	0.437700	0.083900	0.914400
H441	H44	0.383500	0.071800	0.962800
H451	H45	0.505400	0.114000	0.916400
C631	C63	0.376500	0.147800	0.854700
H461	H46	0.314800	0.115900	0.848700
H471	H47	0.342500	0.201100	0.869100
H481	H48	0.433000	0.167300	0.808000
C641	C64	0.416300	0.916600	0.925900
H491	H49	0.341900	0.910300	0.957800
C651	C65	0.579400	0.887000	0.855300
C661	C66	0.669900	0.831600	0.819000
C671	C67	0.704900	0.742700	0.857100
H501	H50	0.670200	0.715900	0.907500
C681	C68	0.792000	0.692100	0.820900
H511	H51	0.815400	0.632400	0.847900
C691	C69	0.844400	0.729200	0.745400
C701	C70	0.807500	0.818800	0.706500
H521	H52	0.840400	0.844600	0.655700
C711	C71	0.723500	0.869900	0.741800
H531	H53	0.701600	0.930100	0.715000
C721	C72	0.932800	0.673400	0.706900
C731	C73	0.010600	0.609100	0.743100
H541	H54	0.008900	0.599600	0.793600
C741	C74	0.092400	0.557900	0.704600
H551	H55	0.141500	0.512700	0.731200
C751	C75	0.025500	0.633600	0.595100
H561	H56	0.029200	0.642200	0.544500
C761	C76	0.940600	0.685400	0.630400
H571	H57	0.889200	0.727900	0.603600
C771	C77	0.421700	0.680700	0.051800
C781	C78	0.464700	0.657200	0.123400
C791	C79	0.394200	0.683600	0.182400
H581	H58	0.323600	0.718700	0.176400
C801	C80	0.431300	0.656200	0.251400
H591	H59	0.383300	0.670100	0.292600
C811	C81	0.540100	0.608200	0.257800
C821	C82	0.613400	0.587100	0.196400
H601	H60	0.687800	0.557500	0.200400
C831	C83	0.573700	0.610800	0.129100
H611	H61	0.620500	0.595400	0.088300
C841	C84	0.578300	0.576500	0.332300
C851	C85	0.241000	0.557900	0.977700
C861	C86	0.115700	0.527300	0.989200
C871	C87	0.021500	0.593200	0.980200
H621	H62	0.036300	0.655800	0.966200
C881	C88	0.095000	0.432900	0.008400
H631	H63	0.157500	0.388400	0.013400
C891	C89	0.468200	0.387800	0.170200
C901	C90	0.416400	0.401500	0.246500
C911	C91	0.314100	0.455200	0.257100
H641	H64	0.274400	0.482100	0.217600
C921	C92	0.269000	0.470000	0.325900
H651	H65	0.199200	0.506000	0.332600
C931	C93	0.330200	0.429900	0.385100
C941	C94	0.434500	0.375100	0.374100
H661	H66	0.475800	0.349400	0.412900
C951	C95	0.476200	0.358900	0.307000
H671	H67	0.543500	0.320200	0.300900
C961	C96	0.288300	0.451700	0.457500
C971	C97	0.336400	0.677100	0.484800
C981	C98	0.434000	0.743800	0.446100
H681	H68	0.427800	0.788900	0.471600
H691	H69	0.509600	0.710400	0.447200
H701	H70	0.426900	0.774700	0.394800
Co31	Co3	0.386680	0.728450	0.917720
Co41	Co4	0.232670	0.492000	0.578230
N51	N5	0.478800	0.994900	0.900500
N61	N6	0.473800	0.850900	0.899700
N71	N7	0.103300	0.571000	0.630700
N81	N8	0.117700	0.379100	0.630600
O131	O13	0.477200	0.643600	0.001690
O141	O14	0.335400	0.737200	0.038000
O151	O15	0.688400	0.555900	0.330820
O161	O16	0.497400	0.571200	0.390380
O171	O17	0.445500	0.451000	0.113790
O181	O18	0.531800	0.313400	0.171400
O191	O19	0.355600	0.422300	0.506000
O201	O20	0.193300	0.496500	0.470570
O211	O21	0.319700	0.496900	0.996200
O221	O22	0.251300	0.643900	0.949900
O231	O23	0.359300	0.592000	0.525830
O241	O24	0.233500	0.705600	0.474900
Co51	Co5	0.500000	0.500000	0.000000
Co61	Co6	0.500000	0.500000	0.500000
