data_ZALDUO_clean_PM
_symmetry_space_group_name_H-M	'P1'
_cell_length_a	11.675200
_cell_length_b	11.675200
_cell_length_c	12.895400
_cell_angle_alpha	90.000000
_cell_angle_beta	90.000000
_cell_angle_gamma	90.000000
_symmetry_Int_Tables_number 1

loop_
_symmetry_equiv_pos_as_xyz
'x,y,z'

loop_
_atom_site_label
_atom_site_type_symbol
_atom_site_fract_x
_atom_site_fract_y
_atom_site_fract_z
N11	N1	0.200860	0.131600	0.387890
N21	N2	0.411900	0.279000	0.610890
C11	C1	0.133200	0.081400	0.342000
C21	C2	0.449000	0.353500	0.658900
N31	N3	0.700860	0.631600	0.887890
N41	N4	0.911900	0.779000	0.110890
C31	C3	0.633200	0.581400	0.842000
C41	C4	0.949000	0.853500	0.158900
N51	N5	0.799140	0.868400	0.387890
N61	N6	0.588100	0.721000	0.610890
C51	C5	0.866800	0.918600	0.342000
C61	C6	0.551000	0.646500	0.658900
N71	N7	0.299140	0.368400	0.887890
N81	N8	0.088100	0.221000	0.110890
C71	C7	0.366800	0.418600	0.842000
C81	C8	0.051000	0.146500	0.158900
N91	N9	0.868400	0.200860	0.387890
N101	N10	0.721000	0.411900	0.610890
C91	C9	0.918600	0.133200	0.342000
C101	C10	0.646500	0.449000	0.658900
N111	N11	0.368400	0.700860	0.887890
N121	N12	0.221000	0.911900	0.110890
C111	C11	0.418600	0.633200	0.842000
C121	C12	0.146500	0.949000	0.158900
N131	N13	0.131600	0.799140	0.387890
N141	N14	0.279000	0.588100	0.610890
C131	C13	0.081400	0.866800	0.342000
C141	C14	0.353500	0.551000	0.658900
N151	N15	0.631600	0.299140	0.887890
N161	N16	0.779000	0.088100	0.110890
C151	C15	0.581400	0.366800	0.842000
C161	C16	0.853500	0.051000	0.158900
N171	N17	0.799140	0.868400	0.612110
N181	N18	0.588100	0.721000	0.389110
C171	C17	0.866800	0.918600	0.658000
C181	C18	0.551000	0.646500	0.341100
N191	N19	0.299140	0.368400	0.112110
N201	N20	0.088100	0.221000	0.889110
C191	C19	0.366800	0.418600	0.158000
C201	C20	0.051000	0.146500	0.841100
N211	N21	0.200860	0.131600	0.612110
N221	N22	0.411900	0.279000	0.389110
C211	C21	0.133200	0.081400	0.658000
C221	C22	0.449000	0.353500	0.341100
N231	N23	0.700860	0.631600	0.112110
N241	N24	0.911900	0.779000	0.889110
C231	C23	0.633200	0.581400	0.158000
C241	C24	0.949000	0.853500	0.841100
N251	N25	0.131600	0.799140	0.612110
N261	N26	0.279000	0.588100	0.389110
C251	C25	0.081400	0.866800	0.658000
C261	C26	0.353500	0.551000	0.341100
N271	N27	0.631600	0.299140	0.112110
N281	N28	0.779000	0.088100	0.889110
C271	C27	0.581400	0.366800	0.158000
C281	C28	0.853500	0.051000	0.841100
N291	N29	0.868400	0.200860	0.612110
N301	N30	0.721000	0.411900	0.389110
C291	C29	0.918600	0.133200	0.658000
C301	C30	0.646500	0.449000	0.341100
N311	N31	0.368400	0.700860	0.112110
N321	N32	0.221000	0.911900	0.889110
C311	C31	0.418600	0.633200	0.158000
C321	C32	0.146500	0.949000	0.841100
W11	W1	0.000000	0.000000	0.251010
W21	W2	0.500000	0.500000	0.751010
W31	W3	0.000000	0.000000	0.748990
W41	W4	0.500000	0.500000	0.248990
Ni11	Ni1	0.305890	0.201810	0.500000
Ni21	Ni2	0.805890	0.701810	0.000000
Ni31	Ni3	0.694110	0.798190	0.500000
Ni41	Ni4	0.194110	0.298190	0.000000
Ni51	Ni5	0.798190	0.305890	0.500000
Ni61	Ni6	0.298190	0.805890	0.000000
Ni71	Ni7	0.201810	0.694110	0.500000
Ni81	Ni8	0.701810	0.194110	0.000000
