data_ZALMIL_clean_PM
_symmetry_space_group_name_H-M	'P1'
_cell_length_a	6.501700
_cell_length_b	10.155000
_cell_length_c	16.358200
_cell_angle_alpha	87.041000
_cell_angle_beta	87.177000
_cell_angle_gamma	81.427000
_symmetry_Int_Tables_number 1

loop_
_symmetry_equiv_pos_as_xyz
'x,y,z'

loop_
_atom_site_label
_atom_site_type_symbol
_atom_site_fract_x
_atom_site_fract_y
_atom_site_fract_z
Co11	Co1	0.865780	0.502110	0.269050
Co21	Co2	0.029270	0.845520	0.996640
O11	O1	0.202200	0.003510	0.964820
H11	H1	0.295100	0.006000	0.904900
O21	O2	0.157200	0.589690	0.273940
O31	O3	0.852200	0.711010	0.255930
O41	O4	0.738300	0.206210	0.270310
O51	O5	0.005800	0.314120	0.287650
O61	O6	0.413700	0.135030	0.098570
O71	O7	0.072800	0.141910	0.120890
O81	O8	0.470100	0.841450	0.087910
O91	O9	0.139700	0.811510	0.112390
N11	N1	0.773800	0.529900	0.393500
N21	N2	0.688900	0.629200	0.509480
C11	C1	0.708100	0.644500	0.427430
H21	H2	0.678700	0.725700	0.398300
C21	C2	0.794300	0.436400	0.457920
H31	H3	0.836600	0.345400	0.452900
C31	C3	0.743600	0.496900	0.529620
H41	H4	0.745700	0.456500	0.582000
C41	C4	0.625200	0.731600	0.570080
H51	H5	0.740000	0.734200	0.605400
H61	H6	0.509800	0.706200	0.604100
C51	C5	0.560800	0.869400	0.532310
C61	C6	0.706000	0.942900	0.494830
H71	H7	0.845400	0.905300	0.491100
C71	C7	0.353300	0.928700	0.537020
H81	H8	0.253300	0.881500	0.561900
C81	C8	0.140700	0.827500	0.279970
H91	H9	0.180300	0.821400	0.337200
C91	C9	0.983500	0.955800	0.269990
H101	H10	0.933400	0.963500	0.214800
H111	H11	0.865100	0.950700	0.307900
C101	C10	0.081500	0.079500	0.286180
H121	H12	0.119700	0.069600	0.343600
C111	C11	0.285000	0.088500	0.235900
H131	H13	0.349700	0.159300	0.258300
C121	C12	0.435900	0.957800	0.247430
H141	H14	0.559600	0.962700	0.212400
H151	H15	0.478100	0.948600	0.303700
C131	C13	0.342500	0.833500	0.227600
H161	H16	0.442100	0.755300	0.243700
C141	C14	0.042900	0.703400	0.266980
C151	C15	0.312400	0.828000	0.135720
C161	C16	0.925500	0.208300	0.279270
C171	C17	0.253500	0.125300	0.144950
Co31	Co3	0.134220	0.497890	0.730950
Co41	Co4	0.970730	0.154480	0.003360
O101	O10	0.797800	0.996490	0.035180
H171	H17	0.704900	0.994000	0.095100
O111	O11	0.842800	0.410310	0.726060
O121	O12	0.147800	0.288990	0.744070
O131	O13	0.261700	0.793790	0.729690
O141	O14	0.994200	0.685880	0.712350
O151	O15	0.586300	0.864970	0.901430
O161	O16	0.927200	0.858090	0.879110
O171	O17	0.529900	0.158550	0.912090
O181	O18	0.860300	0.188490	0.887610
N31	N3	0.226200	0.470100	0.606500
N41	N4	0.311100	0.370800	0.490520
C181	C18	0.291900	0.355500	0.572570
H181	H18	0.321300	0.274300	0.601700
C191	C19	0.205700	0.563600	0.542080
H191	H19	0.163400	0.654600	0.547100
C201	C20	0.256400	0.503100	0.470380
H201	H20	0.254300	0.543500	0.418000
C211	C21	0.374800	0.268400	0.429920
H211	H21	0.260000	0.265800	0.394600
H221	H22	0.490200	0.293800	0.395900
C221	C22	0.439200	0.130600	0.467690
C231	C23	0.294000	0.057100	0.505170
H231	H23	0.154600	0.094700	0.508900
C241	C24	0.646700	0.071300	0.462980
H241	H24	0.746700	0.118500	0.438100
C251	C25	0.859300	0.172500	0.720030
H251	H25	0.819700	0.178600	0.662800
C261	C26	0.016500	0.044200	0.730010
H261	H26	0.066600	0.036500	0.785200
H271	H27	0.134900	0.049300	0.692100
C271	C27	0.918500	0.920500	0.713820
H281	H28	0.880300	0.930400	0.656400
C281	C28	0.715000	0.911500	0.764100
H291	H29	0.650300	0.840700	0.741700
C291	C29	0.564100	0.042200	0.752570
H301	H30	0.440400	0.037300	0.787600
H311	H31	0.521900	0.051400	0.696300
C301	C30	0.657500	0.166500	0.772400
H321	H32	0.557900	0.244700	0.756300
C311	C31	0.957100	0.296600	0.733020
C321	C32	0.687600	0.172000	0.864280
C331	C33	0.074500	0.791700	0.720730
C341	C34	0.746500	0.874700	0.855050
Co51	Co5	0.500000	0.000000	0.000000
