data_ZALREM_clean_PM
_symmetry_space_group_name_H-M	'P1'
_cell_length_a	10.031000
_cell_length_b	14.541000
_cell_length_c	23.562000
_cell_angle_alpha	90.000000
_cell_angle_beta	96.381000
_cell_angle_gamma	90.000000
_symmetry_Int_Tables_number 1

loop_
_symmetry_equiv_pos_as_xyz
'x,y,z'

loop_
_atom_site_label
_atom_site_type_symbol
_atom_site_fract_x
_atom_site_fract_y
_atom_site_fract_z
C11	C1	0.195300	0.469500	0.345100
C21	C2	0.070100	0.425400	0.359700
C31	C3	0.945900	0.465700	0.343400
H11	H1	0.940700	0.521100	0.323600
C41	C4	0.830800	0.423000	0.356600
C51	C5	0.838800	0.339700	0.384600
H21	H2	0.760700	0.308700	0.391000
C61	C6	0.960800	0.302700	0.403000
C71	C7	0.077700	0.343400	0.390200
H31	H3	0.160300	0.316400	0.401700
C81	C8	0.694400	0.467600	0.340400
C91	C9	0.073000	0.171200	0.445900
H41	H4	0.131500	0.206800	0.473100
H51	H5	0.119700	0.160600	0.412600
C101	C10	0.041600	0.078300	0.472700
C111	C11	0.913900	0.071000	0.490900
H61	H6	0.855700	0.120700	0.485000
C121	C12	0.128900	0.004700	0.483300
C131	C13	0.270500	0.008300	0.465500
H71	H7	0.320100	0.955100	0.481200
H81	H8	0.264900	0.004200	0.424200
C141	C14	0.382300	0.096200	0.540100
C151	C15	0.433100	0.184100	0.555700
H91	H9	0.441500	0.228400	0.527900
C161	C16	0.470600	0.204200	0.613300
C171	C17	0.460500	0.136300	0.653800
H101	H10	0.490100	0.148400	0.691900
C181	C18	0.407200	0.050600	0.638600
C191	C19	0.369200	0.032500	0.582000
H111	H11	0.333400	0.975200	0.571700
C201	C20	0.516800	0.298200	0.632800
C211	C21	0.395000	0.984000	0.684500
Cd11	Cd1	0.438080	0.536090	0.319450
O11	O1	0.190100	0.542700	0.318100
O21	O2	0.304800	0.433900	0.363100
O31	O3	0.690800	0.540500	0.315900
O41	O4	0.594600	0.428100	0.352500
O51	O5	0.961100	0.218600	0.430700
O61	O6	0.343500	0.089700	0.483700
O71	O7	0.521900	0.359700	0.598500
O81	O8	0.548000	0.311900	0.683800
O91	O9	0.424200	0.003400	0.731200
O101	O10	0.351800	0.905900	0.670700
C221	C22	0.804700	0.969500	0.154900
C231	C23	0.929900	0.925400	0.140300
C241	C24	0.054100	0.965700	0.156600
H121	H12	0.059300	0.021100	0.176400
C251	C25	0.169200	0.923000	0.143400
C261	C26	0.161200	0.839700	0.115400
H131	H13	0.239300	0.808700	0.109000
C271	C27	0.039200	0.802700	0.097000
C281	C28	0.922300	0.843400	0.109800
H141	H14	0.839700	0.816400	0.098300
C291	C29	0.305600	0.967600	0.159600
C301	C30	0.927000	0.671200	0.054100
H151	H15	0.868500	0.706800	0.026900
H161	H16	0.880300	0.660600	0.087400
C311	C31	0.958400	0.578300	0.027300
C321	C32	0.086100	0.571000	0.009100
H171	H17	0.144300	0.620700	0.015000
C331	C33	0.871100	0.504700	0.016700
C341	C34	0.729500	0.508300	0.034500
H181	H18	0.679900	0.455100	0.018800
H191	H19	0.735100	0.504200	0.075800
C351	C35	0.617700	0.596200	0.959900
C361	C36	0.566900	0.684100	0.944300
H201	H20	0.558500	0.728400	0.972100
C371	C37	0.529400	0.704200	0.886700
C381	C38	0.539500	0.636300	0.846200
H211	H21	0.509900	0.648400	0.808100
C391	C39	0.592800	0.550600	0.861400
C401	C40	0.630800	0.532500	0.918000
H221	H22	0.666600	0.475200	0.928300
C411	C41	0.483200	0.798200	0.867200
C421	C42	0.605000	0.484000	0.815500
Cd21	Cd2	0.561920	0.036090	0.180550
O111	O11	0.809900	0.042700	0.181900
O121	O12	0.695200	0.933900	0.136900
O131	O13	0.309200	0.040500	0.184100
O141	O14	0.405400	0.928100	0.147500
O151	O15	0.038900	0.718600	0.069300
O161	O16	0.656500	0.589700	0.016300
O171	O17	0.478100	0.859700	0.901500
O181	O18	0.452000	0.811900	0.816200
O191	O19	0.575800	0.503400	0.768800
O201	O20	0.648200	0.405900	0.829300
C431	C43	0.804700	0.530500	0.654900
C441	C44	0.929900	0.574600	0.640300
C451	C45	0.054100	0.534300	0.656600
H231	H23	0.059300	0.478900	0.676400
C461	C46	0.169200	0.577000	0.643400
C471	C47	0.161200	0.660300	0.615400
H241	H24	0.239300	0.691300	0.609000
C481	C48	0.039200	0.697300	0.597000
C491	C49	0.922300	0.656600	0.609800
H251	H25	0.839700	0.683600	0.598300
C501	C50	0.305600	0.532400	0.659600
C511	C51	0.927000	0.828800	0.554100
H261	H26	0.868500	0.793200	0.526900
H271	H27	0.880300	0.839400	0.587400
C521	C52	0.958400	0.921700	0.527300
C531	C53	0.086100	0.929000	0.509100
H281	H28	0.144300	0.879300	0.515000
C541	C54	0.871100	0.995300	0.516700
C551	C55	0.729500	0.991700	0.534500
H291	H29	0.679900	0.044900	0.518800
H301	H30	0.735100	0.995800	0.575800
C561	C56	0.617700	0.903800	0.459900
C571	C57	0.566900	0.815900	0.444300
H311	H31	0.558500	0.771600	0.472100
C581	C58	0.529400	0.795800	0.386700
C591	C59	0.539500	0.863700	0.346200
H321	H32	0.509900	0.851600	0.308100
C601	C60	0.592800	0.949400	0.361400
C611	C61	0.630800	0.967500	0.418000
H331	H33	0.666600	0.024800	0.428300
C621	C62	0.483200	0.701800	0.367200
C631	C63	0.605000	0.016000	0.315500
Cd31	Cd3	0.561920	0.463910	0.680550
O211	O21	0.809900	0.457300	0.681900
O221	O22	0.695200	0.566100	0.636900
O231	O23	0.309200	0.459500	0.684100
O241	O24	0.405400	0.571900	0.647500
O251	O25	0.038900	0.781400	0.569300
O261	O26	0.656500	0.910300	0.516300
O271	O27	0.478100	0.640300	0.401500
O281	O28	0.452000	0.688100	0.316200
O291	O29	0.575800	0.996600	0.268800
O301	O30	0.648200	0.094100	0.329300
C641	C64	0.195300	0.030500	0.845100
C651	C65	0.070100	0.074600	0.859700
C661	C66	0.945900	0.034300	0.843400
H341	H34	0.940700	0.978900	0.823600
C671	C67	0.830800	0.077000	0.856600
C681	C68	0.838800	0.160300	0.884600
H351	H35	0.760700	0.191300	0.891000
C691	C69	0.960800	0.197300	0.903000
C701	C70	0.077700	0.156600	0.890200
H361	H36	0.160300	0.183600	0.901700
C711	C71	0.694400	0.032400	0.840400
C721	C72	0.073000	0.328800	0.945900
H371	H37	0.131500	0.293200	0.973100
H381	H38	0.119700	0.339400	0.912600
C731	C73	0.041600	0.421700	0.972700
C741	C74	0.913900	0.429000	0.990900
H391	H39	0.855700	0.379300	0.985000
C751	C75	0.128900	0.495300	0.983300
C761	C76	0.270500	0.491700	0.965500
H401	H40	0.320100	0.544900	0.981200
H411	H41	0.264900	0.495800	0.924200
C771	C77	0.382300	0.403800	0.040100
C781	C78	0.433100	0.315900	0.055700
H421	H42	0.441500	0.271600	0.027900
C791	C79	0.470600	0.295800	0.113300
C801	C80	0.460500	0.363700	0.153800
H431	H43	0.490100	0.351600	0.191900
C811	C81	0.407200	0.449400	0.138600
C821	C82	0.369200	0.467500	0.082000
H441	H44	0.333400	0.524800	0.071700
C831	C83	0.516800	0.201800	0.132800
C841	C84	0.395000	0.516000	0.184500
Cd41	Cd4	0.438080	0.963910	0.819450
O311	O31	0.190100	0.957300	0.818100
O321	O32	0.304800	0.066100	0.863100
O331	O33	0.690800	0.959500	0.815900
O341	O34	0.594600	0.071900	0.852500
O351	O35	0.961100	0.281400	0.930700
O361	O36	0.343500	0.410300	0.983700
O371	O37	0.521900	0.140300	0.098500
O381	O38	0.548000	0.188100	0.183800
O391	O39	0.424200	0.496600	0.231200
O401	O40	0.351800	0.594100	0.170700
