data_ZAQZOG_clean_PM
_symmetry_space_group_name_H-M	'P1'
_cell_length_a	20.674000
_cell_length_b	9.956000
_cell_length_c	23.694000
_cell_angle_alpha	90.000000
_cell_angle_beta	101.154000
_cell_angle_gamma	90.000000
_symmetry_Int_Tables_number 1

loop_
_symmetry_equiv_pos_as_xyz
'x,y,z'

loop_
_atom_site_label
_atom_site_type_symbol
_atom_site_fract_x
_atom_site_fract_y
_atom_site_fract_z
V11	V1	0.778570	0.090010	0.722470
V21	V2	0.673970	0.094210	0.827210
V31	V3	0.560100	0.422830	0.935820
P11	P1	0.606860	0.128200	0.939430
P21	P2	0.689510	0.384100	0.876280
P31	P3	0.785570	0.874700	0.825010
P41	P4	0.442460	0.314200	0.995660
O11	O1	0.734600	0.945900	0.854500
O21	O2	0.742600	0.163400	0.787400
O31	O3	0.639800	0.048300	0.898000
O41	O4	0.651400	0.289500	0.829800
O51	O5	0.642000	0.462700	0.906000
O61	O6	0.514800	0.341300	0.995600
O71	O7	0.434000	0.213100	0.041500
O81	O8	0.408100	0.252400	0.936100
O91	O9	0.594600	0.556000	0.996600
O101	O10	0.565100	0.239900	0.908600
O111	O11	0.738500	0.298700	0.918200
O121	O12	0.656800	0.185400	0.990300
O131	O13	0.561200	0.033100	0.966900
O141	O14	0.725300	0.222800	0.671300
O151	O15	0.768700	0.985800	0.650000
O161	O16	0.776000	0.915800	0.761200
O171	O17	0.854800	0.910700	0.856200
O181	O18	0.721900	0.427100	0.024000
H11	H1	0.687300	0.501900	0.013700
H21	H2	0.733100	0.248500	0.781600
H31	H3	0.386800	0.312300	0.909000
V41	V4	0.278570	0.590010	0.722470
V51	V5	0.173970	0.594210	0.827210
V61	V6	0.060100	0.922830	0.935820
P51	P5	0.106860	0.628200	0.939430
P61	P6	0.189510	0.884100	0.876280
P71	P7	0.285570	0.374700	0.825010
P81	P8	0.942460	0.814200	0.995660
O191	O19	0.234600	0.445900	0.854500
O201	O20	0.242600	0.663400	0.787400
O211	O21	0.139800	0.548300	0.898000
O221	O22	0.151400	0.789500	0.829800
O231	O23	0.142000	0.962700	0.906000
O241	O24	0.014800	0.841300	0.995600
O251	O25	0.934000	0.713100	0.041500
O261	O26	0.908100	0.752400	0.936100
O271	O27	0.094600	0.056000	0.996600
O281	O28	0.065100	0.739900	0.908600
O291	O29	0.238500	0.798700	0.918200
O301	O30	0.156800	0.685400	0.990300
O311	O31	0.061200	0.533100	0.966900
O321	O32	0.225300	0.722800	0.671300
O331	O33	0.268700	0.485800	0.650000
O341	O34	0.276000	0.415800	0.761200
O351	O35	0.354800	0.410700	0.856200
O361	O36	0.221900	0.927100	0.024000
H41	H4	0.187300	0.001900	0.013700
H51	H5	0.233100	0.748500	0.781600
H61	H6	0.886800	0.812300	0.909000
V71	V7	0.221430	0.090010	0.777530
V81	V8	0.326030	0.094210	0.672790
V91	V9	0.439900	0.422830	0.564180
P91	P9	0.393140	0.128200	0.560570
P101	P10	0.310490	0.384100	0.623720
P111	P11	0.214430	0.874700	0.674990
P121	P12	0.557540	0.314200	0.504340
O371	O37	0.265400	0.945900	0.645500
O381	O38	0.257400	0.163400	0.712600
O391	O39	0.360200	0.048300	0.602000
O401	O40	0.348600	0.289500	0.670200
O411	O41	0.358000	0.462700	0.594000
O421	O42	0.485200	0.341300	0.504400
O431	O43	0.566000	0.213100	0.458500
O441	O44	0.591900	0.252400	0.563900
O451	O45	0.405400	0.556000	0.503400
O461	O46	0.434900	0.239900	0.591400
O471	O47	0.261500	0.298700	0.581800
O481	O48	0.343200	0.185400	0.509700
O491	O49	0.438800	0.033100	0.533100
O501	O50	0.274700	0.222800	0.828700
O511	O51	0.231300	0.985800	0.850000
O521	O52	0.224000	0.915800	0.738800
O531	O53	0.145200	0.910700	0.643800
O541	O54	0.278100	0.427100	0.476000
H71	H7	0.312700	0.501900	0.486300
H81	H8	0.266900	0.248500	0.718400
H91	H9	0.613200	0.312300	0.591000
V101	V10	0.721430	0.590010	0.777530
V111	V11	0.826030	0.594210	0.672790
V121	V12	0.939900	0.922830	0.564180
P131	P13	0.893140	0.628200	0.560570
P141	P14	0.810490	0.884100	0.623720
P151	P15	0.714430	0.374700	0.674990
P161	P16	0.057540	0.814200	0.504340
O551	O55	0.765400	0.445900	0.645500
O561	O56	0.757400	0.663400	0.712600
O571	O57	0.860200	0.548300	0.602000
O581	O58	0.848600	0.789500	0.670200
O591	O59	0.858000	0.962700	0.594000
O601	O60	0.985200	0.841300	0.504400
O611	O61	0.066000	0.713100	0.458500
O621	O62	0.091900	0.752400	0.563900
O631	O63	0.905400	0.056000	0.503400
O641	O64	0.934900	0.739900	0.591400
O651	O65	0.761500	0.798700	0.581800
O661	O66	0.843200	0.685400	0.509700
O671	O67	0.938800	0.533100	0.533100
O681	O68	0.774700	0.722800	0.828700
O691	O69	0.731300	0.485800	0.850000
O701	O70	0.724000	0.415800	0.738800
O711	O71	0.645200	0.410700	0.643800
O721	O72	0.778100	0.927100	0.476000
H101	H10	0.812700	0.001900	0.486300
H111	H11	0.766900	0.748500	0.718400
H121	H12	0.113200	0.812300	0.591000
V131	V13	0.221430	0.909990	0.277530
V141	V14	0.326030	0.905790	0.172790
V151	V15	0.439900	0.577170	0.064180
P171	P17	0.393140	0.871800	0.060570
P181	P18	0.310490	0.615900	0.123720
P191	P19	0.214430	0.125300	0.174990
P201	P20	0.557540	0.685800	0.004340
O731	O73	0.265400	0.054100	0.145500
O741	O74	0.257400	0.836600	0.212600
O751	O75	0.360200	0.951700	0.102000
O761	O76	0.348600	0.710500	0.170200
O771	O77	0.358000	0.537300	0.094000
O781	O78	0.485200	0.658700	0.004400
O791	O79	0.566000	0.786900	0.958500
O801	O80	0.591900	0.747600	0.063900
O811	O81	0.405400	0.444000	0.003400
O821	O82	0.434900	0.760100	0.091400
O831	O83	0.261500	0.701300	0.081800
O841	O84	0.343200	0.814600	0.009700
O851	O85	0.438800	0.966900	0.033100
O861	O86	0.274700	0.777200	0.328700
O871	O87	0.231300	0.014200	0.350000
O881	O88	0.224000	0.084200	0.238800
O891	O89	0.145200	0.089300	0.143800
O901	O90	0.278100	0.572900	0.976000
H131	H13	0.312700	0.498100	0.986300
H141	H14	0.266900	0.751500	0.218400
H151	H15	0.613200	0.687700	0.091000
V161	V16	0.721430	0.409990	0.277530
V171	V17	0.826030	0.405790	0.172790
V181	V18	0.939900	0.077170	0.064180
P211	P21	0.893140	0.371800	0.060570
P221	P22	0.810490	0.115900	0.123720
P231	P23	0.714430	0.625300	0.174990
P241	P24	0.057540	0.185800	0.004340
O911	O91	0.765400	0.554100	0.145500
O921	O92	0.757400	0.336600	0.212600
O931	O93	0.860200	0.451700	0.102000
O941	O94	0.848600	0.210500	0.170200
O951	O95	0.858000	0.037300	0.094000
O961	O96	0.985200	0.158700	0.004400
O971	O97	0.066000	0.286900	0.958500
O981	O98	0.091900	0.247600	0.063900
O991	O99	0.905400	0.944000	0.003400
O1001	O100	0.934900	0.260100	0.091400
O1011	O101	0.761500	0.201300	0.081800
O1021	O102	0.843200	0.314600	0.009700
O1031	O103	0.938800	0.466900	0.033100
O1041	O104	0.774700	0.277200	0.328700
O1051	O105	0.731300	0.514200	0.350000
O1061	O106	0.724000	0.584200	0.238800
O1071	O107	0.645200	0.589300	0.143800
O1081	O108	0.778100	0.072900	0.976000
H161	H16	0.812700	0.998100	0.986300
H171	H17	0.766900	0.251500	0.218400
H181	H18	0.113200	0.187700	0.091000
V191	V19	0.778570	0.909990	0.222470
V201	V20	0.673970	0.905790	0.327210
V211	V21	0.560100	0.577170	0.435820
P251	P25	0.606860	0.871800	0.439430
P261	P26	0.689510	0.615900	0.376280
P271	P27	0.785570	0.125300	0.325010
P281	P28	0.442460	0.685800	0.495660
O1091	O109	0.734600	0.054100	0.354500
O1101	O110	0.742600	0.836600	0.287400
O1111	O111	0.639800	0.951700	0.398000
O1121	O112	0.651400	0.710500	0.329800
O1131	O113	0.642000	0.537300	0.406000
O1141	O114	0.514800	0.658700	0.495600
O1151	O115	0.434000	0.786900	0.541500
O1161	O116	0.408100	0.747600	0.436100
O1171	O117	0.594600	0.444000	0.496600
O1181	O118	0.565100	0.760100	0.408600
O1191	O119	0.738500	0.701300	0.418200
O1201	O120	0.656800	0.814600	0.490300
O1211	O121	0.561200	0.966900	0.466900
O1221	O122	0.725300	0.777200	0.171300
O1231	O123	0.768700	0.014200	0.150000
O1241	O124	0.776000	0.084200	0.261200
O1251	O125	0.854800	0.089300	0.356200
O1261	O126	0.721900	0.572900	0.524000
H191	H19	0.687300	0.498100	0.513700
H201	H20	0.733100	0.751500	0.281600
H211	H21	0.386800	0.687700	0.409000
V221	V22	0.278570	0.409990	0.222470
V231	V23	0.173970	0.405790	0.327210
V241	V24	0.060100	0.077170	0.435820
P291	P29	0.106860	0.371800	0.439430
P301	P30	0.189510	0.115900	0.376280
P311	P31	0.285570	0.625300	0.325010
P321	P32	0.942460	0.185800	0.495660
O1271	O127	0.234600	0.554100	0.354500
O1281	O128	0.242600	0.336600	0.287400
O1291	O129	0.139800	0.451700	0.398000
O1301	O130	0.151400	0.210500	0.329800
O1311	O131	0.142000	0.037300	0.406000
O1321	O132	0.014800	0.158700	0.495600
O1331	O133	0.934000	0.286900	0.541500
O1341	O134	0.908100	0.247600	0.436100
O1351	O135	0.094600	0.944000	0.496600
O1361	O136	0.065100	0.260100	0.408600
O1371	O137	0.238500	0.201300	0.418200
O1381	O138	0.156800	0.314600	0.490300
O1391	O139	0.061200	0.466900	0.466900
O1401	O140	0.225300	0.277200	0.171300
O1411	O141	0.268700	0.514200	0.150000
O1421	O142	0.276000	0.584200	0.261200
O1431	O143	0.354800	0.589300	0.356200
O1441	O144	0.221900	0.072900	0.524000
H221	H22	0.187300	0.998100	0.513700
H231	H23	0.233100	0.251500	0.281600
H241	H24	0.886800	0.187700	0.409000
V251	V25	0.750000	0.250000	0.000000
V261	V26	0.250000	0.250000	0.500000
V271	V27	0.250000	0.750000	0.000000
V281	V28	0.750000	0.750000	0.500000
