data_ZARLEL_clean_PM
_symmetry_space_group_name_H-M	'P1'
_cell_length_a	20.269000
_cell_length_b	20.269000
_cell_length_c	39.645000
_cell_angle_alpha	90.000000
_cell_angle_beta	90.000000
_cell_angle_gamma	90.000000
_symmetry_Int_Tables_number 1

loop_
_symmetry_equiv_pos_as_xyz
'x,y,z'

loop_
_atom_site_label
_atom_site_type_symbol
_atom_site_fract_x
_atom_site_fract_y
_atom_site_fract_z
Zn11	Zn1	0.831920	0.145430	0.700880
Zn21	Zn2	0.168080	0.854570	0.200880
Zn31	Zn3	0.854570	0.831920	0.950880
Zn41	Zn4	0.145430	0.168080	0.450880
Zn51	Zn5	0.168080	0.145430	0.299120
Zn61	Zn6	0.831920	0.854570	0.799120
Zn71	Zn7	0.145430	0.831920	0.049120
Zn81	Zn8	0.854570	0.168080	0.549120
Zn91	Zn9	0.831890	0.000000	0.750000
Zn101	Zn10	0.168110	0.000000	0.250000
Zn111	Zn11	0.000000	0.831890	0.000000
Zn121	Zn12	0.000000	0.168110	0.500000
H11	H1	0.838100	0.886600	0.661400
H21	H2	0.857800	0.823700	0.613300
H31	H3	0.897600	0.991800	0.561800
H41	H4	0.878300	0.053900	0.610700
H51	H5	0.895700	0.703700	0.523700
H61	H6	0.934100	0.680500	0.423700
H71	H7	0.924200	0.864600	0.464800
H81	H8	0.840200	0.493200	0.531500
H91	H9	0.834400	0.383100	0.543900
H101	H10	0.948400	0.340200	0.464000
H111	H11	0.960800	0.448600	0.452900
H121	H12	0.017500	0.740800	0.337400
H131	H13	0.064600	0.760400	0.285700
H141	H14	0.015200	0.951600	0.292900
H151	H15	0.967300	0.932400	0.344700
H161	H16	0.161900	0.113400	0.161400
H171	H17	0.142200	0.176300	0.113300
H181	H18	0.102400	0.008200	0.061800
H191	H19	0.121700	0.946100	0.110700
H201	H20	0.104300	0.296300	0.023700
H211	H21	0.065900	0.319500	0.923700
H221	H22	0.075800	0.135400	0.964800
H231	H23	0.159800	0.506800	0.031500
H241	H24	0.165600	0.616900	0.043900
H251	H25	0.051600	0.659800	0.964000
H261	H26	0.039200	0.551400	0.952900
H271	H27	0.982500	0.259200	0.837400
H281	H28	0.935400	0.239600	0.785700
H291	H29	0.984800	0.048400	0.792900
H301	H30	0.032700	0.067600	0.844700
H311	H31	0.113400	0.838100	0.911400
H321	H32	0.176300	0.857800	0.863300
H331	H33	0.008200	0.897600	0.811800
H341	H34	0.946100	0.878300	0.860700
H351	H35	0.296300	0.895700	0.773700
H361	H36	0.319500	0.934100	0.673700
H371	H37	0.135400	0.924200	0.714800
H381	H38	0.506800	0.840200	0.781500
H391	H39	0.616900	0.834400	0.793900
H401	H40	0.659800	0.948400	0.714000
H411	H41	0.551400	0.960800	0.702900
H421	H42	0.259200	0.017500	0.587400
H431	H43	0.239600	0.064600	0.535700
H441	H44	0.048400	0.015200	0.542900
H451	H45	0.067600	0.967300	0.594700
H461	H46	0.886600	0.161900	0.411400
H471	H47	0.823700	0.142200	0.363300
H481	H48	0.991800	0.102400	0.311800
H491	H49	0.053900	0.121700	0.360700
H501	H50	0.703700	0.104300	0.273700
H511	H51	0.680500	0.065900	0.173700
H521	H52	0.864600	0.075800	0.214800
H531	H53	0.493200	0.159800	0.281500
H541	H54	0.383100	0.165600	0.293900
H551	H55	0.340200	0.051600	0.214000
H561	H56	0.448600	0.039200	0.202900
H571	H57	0.740800	0.982500	0.087400
H581	H58	0.760400	0.935400	0.035700
H591	H59	0.951600	0.984800	0.042900
H601	H60	0.932400	0.032700	0.094700
H611	H61	0.161900	0.886600	0.338600
H621	H62	0.142200	0.823700	0.386700
H631	H63	0.102400	0.991800	0.438200
H641	H64	0.121700	0.053900	0.389300
H651	H65	0.104300	0.703700	0.476300
H661	H66	0.065900	0.680500	0.576300
H671	H67	0.075800	0.864600	0.535200
H681	H68	0.159800	0.493200	0.468500
H691	H69	0.165600	0.383100	0.456100
H701	H70	0.051600	0.340200	0.536000
H711	H71	0.039200	0.448600	0.547100
H721	H72	0.982500	0.740800	0.662600
H731	H73	0.935400	0.760400	0.714300
H741	H74	0.984800	0.951600	0.707100
H751	H75	0.032700	0.932400	0.655300
H761	H76	0.838100	0.113400	0.838600
H771	H77	0.857800	0.176300	0.886700
H781	H78	0.897600	0.008200	0.938200
H791	H79	0.878300	0.946100	0.889300
H801	H80	0.895700	0.296300	0.976300
H811	H81	0.934100	0.319500	0.076300
H821	H82	0.924200	0.135400	0.035200
H831	H83	0.840200	0.506800	0.968500
H841	H84	0.834400	0.616900	0.956100
H851	H85	0.948400	0.659800	0.036000
H861	H86	0.960800	0.551400	0.047100
H871	H87	0.017500	0.259200	0.162600
H881	H88	0.064600	0.239600	0.214300
H891	H89	0.015200	0.048400	0.207100
H901	H90	0.967300	0.067600	0.155300
H911	H91	0.886600	0.838100	0.088600
H921	H92	0.823700	0.857800	0.136700
H931	H93	0.991800	0.897600	0.188200
H941	H94	0.053900	0.878300	0.139300
H951	H95	0.703700	0.895700	0.226300
H961	H96	0.680500	0.934100	0.326300
H971	H97	0.864600	0.924200	0.285200
H981	H98	0.493200	0.840200	0.218500
H991	H99	0.383100	0.834400	0.206100
H1001	H100	0.340200	0.948400	0.286000
H1011	H101	0.448600	0.960800	0.297100
H1021	H102	0.740800	0.017500	0.412600
H1031	H103	0.760400	0.064600	0.464300
H1041	H104	0.951600	0.015200	0.457100
H1051	H105	0.932400	0.967300	0.405300
H1061	H106	0.113400	0.161900	0.588600
H1071	H107	0.176300	0.142200	0.636700
H1081	H108	0.008200	0.102400	0.688200
H1091	H109	0.946100	0.121700	0.639300
H1101	H110	0.296300	0.104300	0.726300
H1111	H111	0.319500	0.065900	0.826300
H1121	H112	0.135400	0.075800	0.785200
H1131	H113	0.506800	0.159800	0.718500
H1141	H114	0.616900	0.165600	0.706100
H1151	H115	0.659800	0.051600	0.786000
H1161	H116	0.551400	0.039200	0.797100
H1171	H117	0.259200	0.982500	0.912600
H1181	H118	0.239600	0.935400	0.964300
H1191	H119	0.048400	0.984800	0.957100
H1201	H120	0.067600	0.032700	0.905300
C11	C1	0.843880	0.014440	0.672180
C21	C2	0.855800	0.974210	0.640400
C31	C3	0.850190	0.907600	0.641180
C41	C4	0.862050	0.869850	0.612650
C51	C5	0.880770	0.902600	0.582490
C61	C6	0.885930	0.970400	0.581920
C71	C7	0.874090	0.007740	0.610930
C81	C8	0.892770	0.863650	0.552120
C91	C9	0.900750	0.831500	0.527920
C101	C10	0.910960	0.789300	0.499080
C111	C11	0.906000	0.721600	0.502440
C121	C12	0.915700	0.679600	0.475550
C131	C13	0.928340	0.707800	0.442700
C141	C14	0.931830	0.775700	0.439670
C151	C15	0.922640	0.818510	0.467370
C161	C16	0.909400	0.615200	0.478930
C171	C17	0.907500	0.556000	0.483100
C181	C18	0.899000	0.483300	0.491310
C191	C19	0.862900	0.462500	0.518020
C201	C20	0.859700	0.397100	0.525370
C211	C21	0.892440	0.351000	0.506260
C221	C22	0.928300	0.371700	0.478020
C231	C23	0.934100	0.434800	0.470980
C241	C24	0.889500	0.277700	0.516410
C251	C25	0.948200	0.802930	0.406550
C261	C26	0.963870	0.818530	0.379460
C271	C27	0.988730	0.834600	0.345720
C281	C28	0.017600	0.783700	0.328370
C291	C29	0.046640	0.795800	0.297990
C301	C30	0.050260	0.857400	0.285040
C311	C31	0.016940	0.909240	0.302450
C321	C32	0.987760	0.897900	0.332750
C331	C33	0.086700	0.873800	0.252650
C341	C34	0.156120	0.985560	0.172180
C351	C35	0.144200	0.025790	0.140400
C361	C36	0.149810	0.092400	0.141180
C371	C37	0.137950	0.130150	0.112650
C381	C38	0.119230	0.097400	0.082490
C391	C39	0.114070	0.029600	0.081920
C401	C40	0.125910	0.992260	0.110930
C411	C41	0.107230	0.136350	0.052120
C421	C42	0.099250	0.168500	0.027920
C431	C43	0.089040	0.210700	0.999080
C441	C44	0.094000	0.278400	0.002440
C451	C45	0.084300	0.320400	0.975550
C461	C46	0.071660	0.292200	0.942700
C471	C47	0.068170	0.224300	0.939670
C481	C48	0.077360	0.181490	0.967370
C491	C49	0.090600	0.384800	0.978930
C501	C50	0.092500	0.444000	0.983100
C511	C51	0.101000	0.516700	0.991310
C521	C52	0.137100	0.537500	0.018020
C531	C53	0.140300	0.602900	0.025370
C541	C54	0.107560	0.649000	0.006260
C551	C55	0.071700	0.628300	0.978020
C561	C56	0.065900	0.565200	0.970980
C571	C57	0.110500	0.722300	0.016410
C581	C58	0.051800	0.197070	0.906550
C591	C59	0.036130	0.181470	0.879460
C601	C60	0.011270	0.165400	0.845720
C611	C61	0.982400	0.216300	0.828370
C621	C62	0.953360	0.204200	0.797990
C631	C63	0.949740	0.142600	0.785040
C641	C64	0.983060	0.090760	0.802450
C651	C65	0.012240	0.102100	0.832750
C661	C66	0.913300	0.126200	0.752650
C671	C67	0.985560	0.843880	0.922180
C681	C68	0.025790	0.855800	0.890400
C691	C69	0.092400	0.850190	0.891180
C701	C70	0.130150	0.862050	0.862650
C711	C71	0.097400	0.880770	0.832490
C721	C72	0.029600	0.885930	0.831920
C731	C73	0.992260	0.874090	0.860930
C741	C74	0.136350	0.892770	0.802120
C751	C75	0.168500	0.900750	0.777920
C761	C76	0.210700	0.910960	0.749080
C771	C77	0.278400	0.906000	0.752440
C781	C78	0.320400	0.915700	0.725550
C791	C79	0.292200	0.928340	0.692700
C801	C80	0.224300	0.931830	0.689670
C811	C81	0.181490	0.922640	0.717370
C821	C82	0.384800	0.909400	0.728930
C831	C83	0.444000	0.907500	0.733100
C841	C84	0.516700	0.899000	0.741310
C851	C85	0.537500	0.862900	0.768020
C861	C86	0.602900	0.859700	0.775370
C871	C87	0.649000	0.892440	0.756260
C881	C88	0.628300	0.928300	0.728020
C891	C89	0.565200	0.934100	0.720980
C901	C90	0.722300	0.889500	0.766410
C911	C91	0.197070	0.948200	0.656550
C921	C92	0.181470	0.963870	0.629460
C931	C93	0.165400	0.988730	0.595720
C941	C94	0.216300	0.017600	0.578370
C951	C95	0.204200	0.046640	0.547990
C961	C96	0.142600	0.050260	0.535040
C971	C97	0.090760	0.016940	0.552450
C981	C98	0.102100	0.987760	0.582750
C991	C99	0.126200	0.086700	0.502650
C1001	C100	0.014440	0.156120	0.422180
C1011	C101	0.974210	0.144200	0.390400
C1021	C102	0.907600	0.149810	0.391180
C1031	C103	0.869850	0.137950	0.362650
C1041	C104	0.902600	0.119230	0.332490
C1051	C105	0.970400	0.114070	0.331920
C1061	C106	0.007740	0.125910	0.360930
C1071	C107	0.863650	0.107230	0.302120
C1081	C108	0.831500	0.099250	0.277920
C1091	C109	0.789300	0.089040	0.249080
C1101	C110	0.721600	0.094000	0.252440
C1111	C111	0.679600	0.084300	0.225550
C1121	C112	0.707800	0.071660	0.192700
C1131	C113	0.775700	0.068170	0.189670
C1141	C114	0.818510	0.077360	0.217370
C1151	C115	0.615200	0.090600	0.228930
C1161	C116	0.556000	0.092500	0.233100
C1171	C117	0.483300	0.101000	0.241310
C1181	C118	0.462500	0.137100	0.268020
C1191	C119	0.397100	0.140300	0.275370
C1201	C120	0.351000	0.107560	0.256260
C1211	C121	0.371700	0.071700	0.228020
C1221	C122	0.434800	0.065900	0.220980
C1231	C123	0.277700	0.110500	0.266410
C1241	C124	0.802930	0.051800	0.156550
C1251	C125	0.818530	0.036130	0.129460
C1261	C126	0.834600	0.011270	0.095720
C1271	C127	0.783700	0.982400	0.078370
C1281	C128	0.795800	0.953360	0.047990
C1291	C129	0.857400	0.949740	0.035040
C1301	C130	0.909240	0.983060	0.052450
C1311	C131	0.897900	0.012240	0.082750
C1321	C132	0.873800	0.913300	0.002650
C1331	C133	0.156120	0.014440	0.327820
C1341	C134	0.144200	0.974210	0.359600
C1351	C135	0.149810	0.907600	0.358820
C1361	C136	0.137950	0.869850	0.387350
C1371	C137	0.119230	0.902600	0.417510
C1381	C138	0.114070	0.970400	0.418080
C1391	C139	0.125910	0.007740	0.389070
C1401	C140	0.107230	0.863650	0.447880
C1411	C141	0.099250	0.831500	0.472080
C1421	C142	0.089040	0.789300	0.500920
C1431	C143	0.094000	0.721600	0.497560
C1441	C144	0.084300	0.679600	0.524450
C1451	C145	0.071660	0.707800	0.557300
C1461	C146	0.068170	0.775700	0.560330
C1471	C147	0.077360	0.818510	0.532630
C1481	C148	0.090600	0.615200	0.521070
C1491	C149	0.092500	0.556000	0.516900
C1501	C150	0.101000	0.483300	0.508690
C1511	C151	0.137100	0.462500	0.481980
C1521	C152	0.140300	0.397100	0.474630
C1531	C153	0.107560	0.351000	0.493740
C1541	C154	0.071700	0.371700	0.521980
C1551	C155	0.065900	0.434800	0.529020
C1561	C156	0.110500	0.277700	0.483590
C1571	C157	0.051800	0.802930	0.593450
C1581	C158	0.036130	0.818530	0.620540
C1591	C159	0.011270	0.834600	0.654280
C1601	C160	0.982400	0.783700	0.671630
C1611	C161	0.953360	0.795800	0.702010
C1621	C162	0.949740	0.857400	0.714960
C1631	C163	0.983060	0.909240	0.697550
C1641	C164	0.012240	0.897900	0.667250
C1651	C165	0.913300	0.873800	0.747350
C1661	C166	0.843880	0.985560	0.827820
C1671	C167	0.855800	0.025790	0.859600
C1681	C168	0.850190	0.092400	0.858820
C1691	C169	0.862050	0.130150	0.887350
C1701	C170	0.880770	0.097400	0.917510
C1711	C171	0.885930	0.029600	0.918080
C1721	C172	0.874090	0.992260	0.889070
C1731	C173	0.892770	0.136350	0.947880
C1741	C174	0.900750	0.168500	0.972080
C1751	C175	0.910960	0.210700	0.000920
C1761	C176	0.906000	0.278400	0.997560
C1771	C177	0.915700	0.320400	0.024450
C1781	C178	0.928340	0.292200	0.057300
C1791	C179	0.931830	0.224300	0.060330
C1801	C180	0.922640	0.181490	0.032630
C1811	C181	0.909400	0.384800	0.021070
C1821	C182	0.907500	0.444000	0.016900
C1831	C183	0.899000	0.516700	0.008690
C1841	C184	0.862900	0.537500	0.981980
C1851	C185	0.859700	0.602900	0.974630
C1861	C186	0.892440	0.649000	0.993740
C1871	C187	0.928300	0.628300	0.021980
C1881	C188	0.934100	0.565200	0.029020
C1891	C189	0.889500	0.722300	0.983590
C1901	C190	0.948200	0.197070	0.093450
C1911	C191	0.963870	0.181470	0.120540
C1921	C192	0.988730	0.165400	0.154280
C1931	C193	0.017600	0.216300	0.171630
C1941	C194	0.046640	0.204200	0.202010
C1951	C195	0.050260	0.142600	0.214960
C1961	C196	0.016940	0.090760	0.197550
C1971	C197	0.987760	0.102100	0.167250
C1981	C198	0.086700	0.126200	0.247350
C1991	C199	0.014440	0.843880	0.077820
C2001	C200	0.974210	0.855800	0.109600
C2011	C201	0.907600	0.850190	0.108820
C2021	C202	0.869850	0.862050	0.137350
C2031	C203	0.902600	0.880770	0.167510
C2041	C204	0.970400	0.885930	0.168080
C2051	C205	0.007740	0.874090	0.139070
C2061	C206	0.863650	0.892770	0.197880
C2071	C207	0.831500	0.900750	0.222080
C2081	C208	0.789300	0.910960	0.250920
C2091	C209	0.721600	0.906000	0.247560
C2101	C210	0.679600	0.915700	0.274450
C2111	C211	0.707800	0.928340	0.307300
C2121	C212	0.775700	0.931830	0.310330
C2131	C213	0.818510	0.922640	0.282630
C2141	C214	0.615200	0.909400	0.271070
C2151	C215	0.556000	0.907500	0.266900
C2161	C216	0.483300	0.899000	0.258690
C2171	C217	0.462500	0.862900	0.231980
C2181	C218	0.397100	0.859700	0.224630
C2191	C219	0.351000	0.892440	0.243740
C2201	C220	0.371700	0.928300	0.271980
C2211	C221	0.434800	0.934100	0.279020
C2221	C222	0.277700	0.889500	0.233590
C2231	C223	0.802930	0.948200	0.343450
C2241	C224	0.818530	0.963870	0.370540
C2251	C225	0.834600	0.988730	0.404280
C2261	C226	0.783700	0.017600	0.421630
C2271	C227	0.795800	0.046640	0.452010
C2281	C228	0.857400	0.050260	0.464960
C2291	C229	0.909240	0.016940	0.447550
C2301	C230	0.897900	0.987760	0.417250
C2311	C231	0.873800	0.086700	0.497350
C2321	C232	0.985560	0.156120	0.577820
C2331	C233	0.025790	0.144200	0.609600
C2341	C234	0.092400	0.149810	0.608820
C2351	C235	0.130150	0.137950	0.637350
C2361	C236	0.097400	0.119230	0.667510
C2371	C237	0.029600	0.114070	0.668080
C2381	C238	0.992260	0.125910	0.639070
C2391	C239	0.136350	0.107230	0.697880
C2401	C240	0.168500	0.099250	0.722080
C2411	C241	0.210700	0.089040	0.750920
C2421	C242	0.278400	0.094000	0.747560
C2431	C243	0.320400	0.084300	0.774450
C2441	C244	0.292200	0.071660	0.807300
C2451	C245	0.224300	0.068170	0.810330
C2461	C246	0.181490	0.077360	0.782630
C2471	C247	0.384800	0.090600	0.771070
C2481	C248	0.444000	0.092500	0.766900
C2491	C249	0.516700	0.101000	0.758690
C2501	C250	0.537500	0.137100	0.731980
C2511	C251	0.602900	0.140300	0.724630
C2521	C252	0.649000	0.107560	0.743740
C2531	C253	0.628300	0.071700	0.771980
C2541	C254	0.565200	0.065900	0.779020
C2551	C255	0.722300	0.110500	0.733590
C2561	C256	0.197070	0.051800	0.843450
C2571	C257	0.181470	0.036130	0.870540
C2581	C258	0.165400	0.011270	0.904280
C2591	C259	0.216300	0.982400	0.921630
C2601	C260	0.204200	0.953360	0.952010
C2611	C261	0.142600	0.949740	0.964960
C2621	C262	0.090760	0.983060	0.947550
C2631	C263	0.102100	0.012240	0.917250
C2641	C264	0.126200	0.913300	0.997350
O11	O1	0.830320	0.984200	0.698340
O21	O2	0.849640	0.076140	0.668660
O31	O3	0.850980	0.263150	0.538890
O41	O4	0.928500	0.239360	0.499920
O51	O5	0.109220	0.826710	0.237260
O61	O6	0.093260	0.930800	0.242960
O71	O7	0.169680	0.015800	0.198340
O81	O8	0.150360	0.923860	0.168660
O91	O9	0.149020	0.736850	0.038890
O101	O10	0.071500	0.760640	0.999920
O111	O11	0.890780	0.173290	0.737260
O121	O12	0.906740	0.069200	0.742960
O131	O13	0.015800	0.830320	0.948340
O141	O14	0.923860	0.849640	0.918660
O151	O15	0.736850	0.850980	0.788890
O161	O16	0.760640	0.928500	0.749920
O171	O17	0.173290	0.109220	0.487260
O181	O18	0.069200	0.093260	0.492960
O191	O19	0.984200	0.169680	0.448340
O201	O20	0.076140	0.150360	0.418660
O211	O21	0.263150	0.149020	0.288890
O221	O22	0.239360	0.071500	0.249920
O231	O23	0.826710	0.890780	0.987260
O241	O24	0.930800	0.906740	0.992960
O251	O25	0.169680	0.984200	0.301660
O261	O26	0.150360	0.076140	0.331340
O271	O27	0.149020	0.263150	0.461110
O281	O28	0.071500	0.239360	0.500080
O291	O29	0.890780	0.826710	0.762740
O301	O30	0.906740	0.930800	0.757040
O311	O31	0.830320	0.015800	0.801660
O321	O32	0.849640	0.923860	0.831340
O331	O33	0.850980	0.736850	0.961110
O341	O34	0.928500	0.760640	0.000080
O351	O35	0.109220	0.173290	0.262740
O361	O36	0.093260	0.069200	0.257040
O371	O37	0.984200	0.830320	0.051660
O381	O38	0.076140	0.849640	0.081340
O391	O39	0.263150	0.850980	0.211110
O401	O40	0.239360	0.928500	0.250080
O411	O41	0.826710	0.109220	0.512740
O421	O42	0.930800	0.093260	0.507040
O431	O43	0.015800	0.169680	0.551660
O441	O44	0.923860	0.150360	0.581340
O451	O45	0.736850	0.149020	0.711110
O461	O46	0.760640	0.071500	0.750080
O471	O47	0.173290	0.890780	0.012740
O481	O48	0.069200	0.906740	0.007040
