data_ZARLUB_charged_PM
_symmetry_space_group_name_H-M	'P1'
_cell_length_a	19.345500
_cell_length_b	19.345500
_cell_length_c	19.345500
_cell_angle_alpha	107.053000
_cell_angle_beta	110.694000
_cell_angle_gamma	110.694000
_symmetry_Int_Tables_number 1

loop_
_symmetry_equiv_pos_as_xyz
'x,y,z'

loop_
_atom_site_label
_atom_site_type_symbol
_atom_site_fract_x
_atom_site_fract_y
_atom_site_fract_z
Zn11	Zn1	0.149280	0.961920	0.441640
Zn21	Zn2	0.850720	0.292360	0.812640
Zn31	Zn3	0.479720	0.441640	0.292360
Zn41	Zn4	0.520280	0.812640	0.961920
Zn51	Zn5	0.850720	0.038080	0.558360
Zn61	Zn6	0.149280	0.707640	0.187360
Zn71	Zn7	0.520280	0.558360	0.707640
Zn81	Zn8	0.479720	0.187360	0.038080
Zn91	Zn9	0.663470	0.778940	0.884530
Zn101	Zn10	0.336530	0.221060	0.115470
Zn111	Zn11	0.105590	0.884530	0.221060
Zn121	Zn12	0.894410	0.115470	0.778940
H11	H1	0.688100	0.897300	0.212800
H21	H2	0.845700	0.853900	0.136600
H31	H3	0.924000	0.960600	0.385000
H41	H4	0.307600	0.656500	0.857700
H51	H5	0.181700	0.534700	0.749400
H61	H6	0.311900	0.524700	0.209200
H71	H7	0.154300	0.290900	0.008200
H81	H8	0.076000	0.461000	0.036600
H91	H9	0.692400	0.550100	0.348900
H101	H10	0.818300	0.567700	0.353000
H111	H11	0.315500	0.212800	0.524700
H121	H12	0.282700	0.136600	0.290900
H131	H13	0.424400	0.385000	0.461000
H141	H14	0.201200	0.857700	0.550100
H151	H15	0.214700	0.749400	0.567700
H161	H16	0.684500	0.209200	0.897300
H171	H17	0.717300	0.008200	0.853900
H181	H18	0.575600	0.036600	0.960600
H191	H19	0.798800	0.348900	0.656500
H201	H20	0.785300	0.353000	0.534700
H211	H21	0.311900	0.102700	0.787200
H221	H22	0.154300	0.146100	0.863400
H231	H23	0.076000	0.039400	0.615000
H241	H24	0.692400	0.343500	0.142300
H251	H25	0.818300	0.465300	0.250600
H261	H26	0.688100	0.475300	0.790800
H271	H27	0.845700	0.709100	0.991800
H281	H28	0.924000	0.539000	0.963400
H291	H29	0.307600	0.449900	0.651100
H301	H30	0.181700	0.432300	0.647000
H311	H31	0.684500	0.787200	0.475300
H321	H32	0.717300	0.863400	0.709100
H331	H33	0.575600	0.615000	0.539000
H341	H34	0.798800	0.142300	0.449900
H351	H35	0.785300	0.250600	0.432300
H361	H36	0.315500	0.790800	0.102700
H371	H37	0.282700	0.991800	0.146100
H381	H38	0.424400	0.963400	0.039400
H391	H39	0.201200	0.651100	0.343500
H401	H40	0.214700	0.647000	0.465300
C11	C1	0.785500	0.967020	0.379720
C21	C2	0.685500	0.833400	0.068900
C31	C3	0.804200	0.935050	0.310450
C41	C4	0.740400	0.900070	0.225470
C51	C5	0.755900	0.869030	0.159330
C61	C6	0.900200	0.907650	0.265050
C71	C7	0.835240	0.873540	0.179620
C81	C8	0.882500	0.938060	0.329160
C91	C9	0.384800	0.633500	0.812500
C101	C10	0.987100	0.911360	0.290060
C111	C11	0.307300	0.618200	0.815100
C121	C12	0.233400	0.544500	0.751900
C131	C13	0.214500	0.594220	0.181520
C141	C14	0.314500	0.383400	0.147900
C151	C15	0.195800	0.506250	0.130850
C161	C16	0.259600	0.485070	0.159670
C171	C17	0.244100	0.403430	0.113130
C181	C18	0.099800	0.364850	0.007450
C191	C19	0.164760	0.344380	0.038300
C201	C20	0.117500	0.446660	0.055560
C211	C21	0.615200	0.427700	0.248700
C221	C22	0.012900	0.302960	0.924260
C231	C23	0.692700	0.507800	0.310900
C241	C24	0.766600	0.518500	0.311100
C251	C25	0.412700	0.379720	0.594220
C261	C26	0.235500	0.068900	0.383400
C271	C27	0.375400	0.310450	0.506250
C281	C28	0.325400	0.225470	0.485070
C291	C29	0.290300	0.159330	0.403430
C301	C30	0.357400	0.265050	0.364850
C311	C31	0.306080	0.179620	0.344380
C321	C32	0.391100	0.329160	0.446660
C331	C33	0.179000	0.812500	0.427700
C341	C34	0.378700	0.290060	0.302960
C351	C35	0.196900	0.815100	0.507800
C361	C36	0.207400	0.751900	0.518500
C371	C37	0.587300	0.181520	0.967020
C381	C38	0.764500	0.147900	0.833400
C391	C39	0.624600	0.130850	0.935050
C401	C40	0.674600	0.159670	0.900070
C411	C41	0.709700	0.113130	0.869030
C421	C42	0.642600	0.007450	0.907650
C431	C43	0.693920	0.038300	0.873540
C441	C44	0.608900	0.055560	0.938060
C451	C45	0.821000	0.248700	0.633500
C461	C46	0.621300	0.924260	0.911360
C471	C47	0.803100	0.310900	0.618200
C481	C48	0.792600	0.311100	0.544500
C491	C49	0.214500	0.032980	0.620280
C501	C50	0.314500	0.166600	0.931100
C511	C51	0.195800	0.064950	0.689550
C521	C52	0.259600	0.099930	0.774530
C531	C53	0.244100	0.130970	0.840670
C541	C54	0.099800	0.092350	0.734950
C551	C55	0.164760	0.126460	0.820380
C561	C56	0.117500	0.061940	0.670840
C571	C57	0.615200	0.366500	0.187500
C581	C58	0.012900	0.088640	0.709940
C591	C59	0.692700	0.381800	0.184900
C601	C60	0.766600	0.455500	0.248100
C611	C61	0.785500	0.405780	0.818480
C621	C62	0.685500	0.616600	0.852100
C631	C63	0.804200	0.493750	0.869150
C641	C64	0.740400	0.514930	0.840330
C651	C65	0.755900	0.596570	0.886870
C661	C66	0.900200	0.635150	0.992550
C671	C67	0.835240	0.655620	0.961700
C681	C68	0.882500	0.553340	0.944440
C691	C69	0.384800	0.572300	0.751300
C701	C70	0.987100	0.697040	0.075740
C711	C71	0.307300	0.492200	0.689100
C721	C72	0.233400	0.481500	0.688900
C731	C73	0.587300	0.620280	0.405780
C741	C74	0.764500	0.931100	0.616600
C751	C75	0.624600	0.689550	0.493750
C761	C76	0.674600	0.774530	0.514930
C771	C77	0.709700	0.840670	0.596570
C781	C78	0.642600	0.734950	0.635150
C791	C79	0.693920	0.820380	0.655620
C801	C80	0.608900	0.670840	0.553340
C811	C81	0.821000	0.187500	0.572300
C821	C82	0.621300	0.709940	0.697040
C831	C83	0.803100	0.184900	0.492200
C841	C84	0.792600	0.248100	0.481500
C851	C85	0.412700	0.818480	0.032980
C861	C86	0.235500	0.852100	0.166600
C871	C87	0.375400	0.869150	0.064950
C881	C88	0.325400	0.840330	0.099930
C891	C89	0.290300	0.886870	0.130970
C901	C90	0.357400	0.992550	0.092350
C911	C91	0.306080	0.961700	0.126460
C921	C92	0.391100	0.944440	0.061940
C931	C93	0.179000	0.751300	0.366500
C941	C94	0.378700	0.075740	0.088640
C951	C95	0.196900	0.689100	0.381800
C961	C96	0.207400	0.688900	0.455500
N11	N1	0.467300	0.701710	0.861350
N21	N2	0.532700	0.394050	0.234410
N31	N3	0.159640	0.861350	0.394050
N41	N4	0.840360	0.234410	0.701710
N51	N5	0.532700	0.298290	0.138650
N61	N6	0.467300	0.605950	0.765590
N71	N7	0.840360	0.138650	0.605950
N81	N8	0.159640	0.765590	0.298290
N91	N9	0.517100	0.684100	0.833000
N101	N10	0.482900	0.315900	0.167000
N111	N11	0.148900	0.833000	0.315900
N121	N12	0.851100	0.167000	0.684100
O11	O1	0.025500	0.917500	0.364800
O21	O2	0.613500	0.826150	0.059250
O31	O3	0.700750	0.812160	0.011070
O41	O4	0.004930	0.888890	0.235780
O51	O5	0.852840	0.010140	0.454840
O61	O6	0.710500	0.949650	0.362950
O71	O7	0.974500	0.339300	0.892000
O81	O8	0.386500	0.445750	0.212650
O91	O9	0.299250	0.310320	0.111410
O101	O10	0.995070	0.230850	0.883960
O111	O11	0.147160	0.602000	0.157300
O121	O12	0.289500	0.652450	0.239150
O131	O13	0.447300	0.364800	0.339300
O141	O14	0.233100	0.059250	0.445750
O151	O15	0.198910	0.011070	0.310320
O161	O16	0.346890	0.235780	0.230850
O171	O17	0.444700	0.454840	0.602000
O181	O18	0.413300	0.362950	0.652450
O191	O19	0.552700	0.892000	0.917500
O201	O20	0.766900	0.212650	0.826150
O211	O21	0.801090	0.111410	0.812160
O221	O22	0.653110	0.883960	0.888890
O231	O23	0.555300	0.157300	0.010140
O241	O24	0.586700	0.239150	0.949650
O251	O25	0.974500	0.082500	0.635200
O261	O26	0.386500	0.173850	0.940750
O271	O27	0.299250	0.187840	0.988930
O281	O28	0.995070	0.111110	0.764220
O291	O29	0.147160	0.989860	0.545160
O301	O30	0.289500	0.050350	0.637050
O311	O31	0.025500	0.660700	0.108000
O321	O32	0.613500	0.554250	0.787350
O331	O33	0.700750	0.689680	0.888590
O341	O34	0.004930	0.769150	0.116040
O351	O35	0.852840	0.398000	0.842700
O361	O36	0.710500	0.347550	0.760850
O371	O37	0.552700	0.635200	0.660700
O381	O38	0.766900	0.940750	0.554250
O391	O39	0.801090	0.988930	0.689680
O401	O40	0.653110	0.764220	0.769150
O411	O41	0.555300	0.545160	0.398000
O421	O42	0.586700	0.637050	0.347550
O431	O43	0.447300	0.108000	0.082500
O441	O44	0.233100	0.787350	0.173850
O451	O45	0.198910	0.888590	0.187840
O461	O46	0.346890	0.116040	0.111110
O471	O47	0.444700	0.842700	0.989860
O481	O48	0.413300	0.760850	0.050350
H411	H41	0.538400	0.346800	0.971400
H421	H42	0.472200	0.376300	0.968900
H431	H43	0.568200	0.442500	0.004700
H441	H44	0.407100	0.280200	0.757300
H451	H45	0.377400	0.281000	0.823000
H461	H46	0.440000	0.247800	0.820200
H471	H47	0.461600	0.433000	0.808400
H481	H48	0.527800	0.496700	0.904100
H491	H49	0.431800	0.436500	0.874300
H501	H50	0.592900	0.350200	0.873100
H511	H51	0.622600	0.445600	0.903600
H521	H52	0.560000	0.380200	0.807800
C971	C97	0.521800	0.386300	0.963300
C981	C98	0.424300	0.288300	0.813400
C991	C99	0.478200	0.441500	0.864500
C1001	C100	0.575700	0.389100	0.864000
N131	N13	0.500000	0.375600	0.875600
H531	H53	0.624600	0.971400	0.433000
H541	H54	0.592600	0.968900	0.496700
H551	H55	0.562200	0.004700	0.436500
H561	H56	0.477100	0.757300	0.350200
H571	H57	0.542000	0.823000	0.445600
H581	H58	0.572400	0.820200	0.380200
H591	H59	0.375400	0.808400	0.346800
H601	H60	0.407400	0.904100	0.376300
H611	H61	0.437800	0.874300	0.442500
H621	H62	0.522900	0.873100	0.280200
H631	H63	0.458000	0.903600	0.281000
H641	H64	0.427600	0.807800	0.247800
C1011	C101	0.577000	0.963300	0.441500
C1021	C102	0.525100	0.813400	0.389100
C1031	C103	0.423000	0.864500	0.386300
C1041	C104	0.474900	0.864000	0.288300
N141	N14	0.500000	0.875600	0.375600
H651	H65	0.461600	0.653200	0.028600
H661	H66	0.527800	0.623700	0.031100
H671	H67	0.431800	0.557500	0.995300
H681	H68	0.592900	0.719800	0.242700
H691	H69	0.622600	0.719000	0.177000
H701	H70	0.560000	0.752200	0.179800
H711	H71	0.538400	0.567000	0.191600
H721	H72	0.472200	0.503300	0.095900
H731	H73	0.568200	0.563500	0.125700
H741	H74	0.407100	0.649800	0.126900
H751	H75	0.377400	0.554400	0.096400
H761	H76	0.440000	0.619800	0.192200
C1051	C105	0.478200	0.613700	0.036700
C1061	C106	0.575700	0.711700	0.186600
C1071	C107	0.521800	0.558500	0.135500
C1081	C108	0.424300	0.610900	0.136000
N151	N15	0.500000	0.624400	0.124400
H771	H77	0.375400	0.028600	0.567000
H781	H78	0.407400	0.031100	0.503300
H791	H79	0.437800	0.995300	0.563500
H801	H80	0.522900	0.242700	0.649800
H811	H81	0.458000	0.177000	0.554400
H821	H82	0.427600	0.179800	0.619800
H831	H83	0.624600	0.191600	0.653200
H841	H84	0.592600	0.095900	0.623700
H851	H85	0.562200	0.125700	0.557500
H861	H86	0.477100	0.126900	0.719800
H871	H87	0.542000	0.096400	0.719000
H881	H88	0.572400	0.192200	0.752200
C1091	C109	0.423000	0.036700	0.558500
C1101	C110	0.474900	0.186600	0.610900
C1111	C111	0.577000	0.135500	0.613700
C1121	C112	0.525100	0.136000	0.711700
N161	N16	0.500000	0.124400	0.624400
