data_ZARMAI_charged_PM
_symmetry_space_group_name_H-M	'P1'
_cell_length_a	18.829200
_cell_length_b	18.829200
_cell_length_c	18.829200
_cell_angle_alpha	68.760500
_cell_angle_beta	74.010200
_cell_angle_gamma	111.239000
_symmetry_Int_Tables_number 1

loop_
_symmetry_equiv_pos_as_xyz
'x,y,z'

loop_
_atom_site_label
_atom_site_type_symbol
_atom_site_fract_x
_atom_site_fract_y
_atom_site_fract_z
Zn11	Zn1	0.311250	0.853380	0.204310
Zn21	Zn2	0.942310	0.146620	0.542130
Zn31	Zn3	0.457870	0.515560	0.688750
Zn41	Zn4	0.795690	0.484440	0.057690
Zn51	Zn5	0.688750	0.146620	0.795690
Zn61	Zn6	0.057690	0.853380	0.457870
Zn71	Zn7	0.542130	0.484440	0.311250
Zn81	Zn8	0.204310	0.515560	0.942310
Zn91	Zn9	0.379650	0.650950	0.728700
Zn101	Zn10	0.620350	0.349050	0.271300
Zn111	Zn11	0.728700	0.108350	0.620350
Zn121	Zn12	0.271300	0.891650	0.379650
H11	H1	0.493000	0.847100	0.787100
H21	H2	0.467200	0.930200	0.954800
H31	H3	0.336400	0.341000	0.891800
H41	H4	0.280900	0.693600	0.022300
H51	H5	0.365800	0.152900	0.354100
H61	H6	0.115000	0.069800	0.463000
H71	H7	0.767200	0.659000	0.004600
H81	H8	0.284100	0.306400	0.412700
H91	H9	0.645900	0.280100	0.507000
H101	H10	0.537000	0.422000	0.532800
H111	H11	0.995400	0.228200	0.663600
H121	H12	0.587300	0.303200	0.719100
H131	H13	0.212900	0.719900	0.634200
H141	H14	0.045200	0.578000	0.885000
H151	H15	0.108200	0.771800	0.232800
H161	H16	0.977700	0.696800	0.715900
H171	H17	0.507000	0.152900	0.212900
H181	H18	0.532800	0.069800	0.045200
H191	H19	0.663600	0.659000	0.108200
H201	H20	0.719100	0.306400	0.977700
H211	H21	0.634200	0.847100	0.645900
H221	H22	0.885000	0.930200	0.537000
H231	H23	0.232800	0.341000	0.995400
H241	H24	0.715900	0.693600	0.587300
H251	H25	0.354100	0.719900	0.493000
H261	H26	0.463000	0.578000	0.467200
H271	H27	0.004600	0.771800	0.336400
H281	H28	0.412700	0.696800	0.280900
H291	H29	0.787100	0.280100	0.365800
H301	H30	0.954800	0.422000	0.115000
H311	H31	0.891800	0.228200	0.767200
H321	H32	0.022300	0.303200	0.284100
C11	C1	0.462700	0.836800	0.841500
C21	C2	0.383200	0.758200	0.902000
C31	C3	0.366500	0.809200	0.003300
C41	C4	0.494900	0.898300	0.864000
C51	C5	0.446000	0.885700	0.942500
C61	C6	0.325700	0.387200	0.881900
C71	C7	0.334400	0.745300	0.983100
C81	C8	0.347800	0.687800	0.881000
C91	C9	0.316500	0.794200	0.086500
C101	C10	0.577000	0.982500	0.803700
C111	C11	0.321700	0.163200	0.374100
C121	C12	0.339800	0.241800	0.375000
C131	C13	0.187500	0.190800	0.442700
C141	C14	0.237700	0.101700	0.403400
C151	C15	0.171800	0.114300	0.439700
C161	C16	0.730900	0.612800	0.061500
C171	C17	0.271600	0.254700	0.410900
C181	C18	0.431200	0.312200	0.340000
C191	C19	0.119300	0.205800	0.477700
C201	C20	0.213800	0.017500	0.405500
C211	C21	0.625900	0.304200	0.537300
C221	C22	0.625000	0.285200	0.616800
C231	C23	0.557300	0.369800	0.633500
C241	C24	0.596600	0.358900	0.505100
C251	C25	0.560300	0.388500	0.554000
C261	C26	0.938500	0.207600	0.674300
C271	C27	0.589100	0.317500	0.665600
C281	C28	0.660000	0.228800	0.652200
C291	C29	0.522300	0.403000	0.683500
C301	C30	0.594500	0.380700	0.423000
C311	C31	0.158500	0.695800	0.678300
C321	C32	0.098000	0.714800	0.660200
C331	C33	0.996700	0.630200	0.812500
C341	C34	0.136000	0.641100	0.762300
C351	C35	0.057500	0.611500	0.828200
C361	C36	0.118100	0.792400	0.269100
C371	C37	0.016900	0.682500	0.728400
C381	C38	0.119000	0.771200	0.568800
C391	C39	0.913500	0.597000	0.880700
C401	C40	0.196300	0.619300	0.786200
C411	C41	0.537300	0.163200	0.158500
C421	C42	0.616800	0.241800	0.098000
C431	C43	0.633500	0.190800	0.996700
C441	C44	0.505100	0.101700	0.136000
C451	C45	0.554000	0.114300	0.057500
C461	C46	0.674300	0.612800	0.118100
C471	C47	0.665600	0.254700	0.016900
C481	C48	0.652200	0.312200	0.119000
C491	C49	0.683500	0.205800	0.913500
C501	C50	0.423000	0.017500	0.196300
C511	C51	0.678300	0.836800	0.625900
C521	C52	0.660200	0.758200	0.625000
C531	C53	0.812500	0.809200	0.557300
C541	C54	0.762300	0.898300	0.596600
C551	C55	0.828200	0.885700	0.560300
C561	C56	0.269100	0.387200	0.938500
C571	C57	0.728400	0.745300	0.589100
C581	C58	0.568800	0.687800	0.660000
C591	C59	0.880700	0.794200	0.522300
C601	C60	0.786200	0.982500	0.594500
C611	C61	0.374100	0.695800	0.462700
C621	C62	0.375000	0.714800	0.383200
C631	C63	0.442700	0.630200	0.366500
C641	C64	0.403400	0.641100	0.494900
C651	C65	0.439700	0.611500	0.446000
C661	C66	0.061500	0.792400	0.325700
C671	C67	0.410900	0.682500	0.334400
C681	C68	0.340000	0.771200	0.347800
C691	C69	0.477700	0.597000	0.316500
C701	C70	0.405500	0.619300	0.577000
C711	C71	0.841500	0.304200	0.321700
C721	C72	0.902000	0.285200	0.339800
C731	C73	0.003300	0.369800	0.187500
C741	C74	0.864000	0.358900	0.237700
C751	C75	0.942500	0.388500	0.171800
C761	C76	0.881900	0.207600	0.730900
C771	C77	0.983100	0.317500	0.271600
C781	C78	0.881000	0.228800	0.431200
C791	C79	0.086500	0.403000	0.119300
C801	C80	0.803700	0.380700	0.213800
N11	N1	0.366300	0.462200	0.807900
N21	N2	0.729900	0.537800	0.095900
N31	N3	0.904100	0.174200	0.633700
N41	N4	0.192100	0.825800	0.270100
N51	N5	0.633700	0.537800	0.192100
N61	N6	0.270100	0.462200	0.904100
N71	N7	0.095900	0.825800	0.366300
N81	N8	0.807900	0.174200	0.729900
N91	N9	0.333800	0.514000	0.819800
N101	N10	0.666200	0.486000	0.180200
N111	N11	0.819800	0.153600	0.666200
N121	N12	0.180200	0.846400	0.333800
O11	O1	0.385200	0.697800	0.811000
O21	O2	0.347700	0.858200	0.098500
O31	O3	0.614700	0.005900	0.727200
O41	O4	0.610500	0.024200	0.835300
O51	O5	0.275300	0.618000	0.942300
O61	O6	0.250500	0.726600	0.142900
O71	O7	0.491200	0.302200	0.312600
O81	O8	0.043300	0.141800	0.510500
O91	O9	0.266900	0.994100	0.391200
O101	O10	0.140500	0.975800	0.413700
O111	O11	0.439700	0.382000	0.342700
O121	O12	0.130500	0.273400	0.476100
O131	O13	0.687400	0.196200	0.614800
O141	O14	0.489500	0.446200	0.652300
O151	O15	0.608800	0.341900	0.385300
O161	O16	0.586300	0.445800	0.389500
O171	O17	0.657300	0.217600	0.724700
O181	O18	0.523900	0.393400	0.749500
O191	O19	0.189000	0.803800	0.508800
O201	O20	0.901500	0.553800	0.956700
O211	O21	0.272800	0.658100	0.733100
O221	O22	0.164700	0.554200	0.859500
O231	O23	0.057700	0.782400	0.560300
O241	O24	0.857100	0.606600	0.869500
O251	O25	0.614800	0.302200	0.189000
O261	O26	0.652300	0.141800	0.901500
O271	O27	0.385300	0.994100	0.272800
O281	O28	0.389500	0.975800	0.164700
O291	O29	0.724700	0.382000	0.057700
O301	O30	0.749500	0.273400	0.857100
O311	O31	0.508800	0.697800	0.687400
O321	O32	0.956700	0.858200	0.489500
O331	O33	0.733100	0.005900	0.608800
O341	O34	0.859500	0.024200	0.586300
O351	O35	0.560300	0.618000	0.657300
O361	O36	0.869500	0.726600	0.523900
O371	O37	0.312600	0.803800	0.385200
O381	O38	0.510500	0.553800	0.347700
O391	O39	0.391200	0.658100	0.614700
O401	O40	0.413700	0.554200	0.610500
O411	O41	0.342700	0.782400	0.275300
O421	O42	0.476100	0.606600	0.250500
O431	O43	0.811000	0.196200	0.491200
O441	O44	0.098500	0.446200	0.043300
O451	O45	0.727200	0.341900	0.266900
O461	O46	0.835300	0.445800	0.140500
O471	O47	0.942300	0.217600	0.439700
O481	O48	0.142900	0.393400	0.130500
H331	H33	0.526400	0.525000	0.872400
H341	H34	0.490700	0.425400	0.938900
H351	H35	0.529600	0.460000	0.839800
H361	H36	0.677700	0.626600	0.777100
H371	H37	0.677600	0.560600	0.745000
H381	H38	0.744500	0.595600	0.776300
H391	H39	0.602600	0.475000	0.998600
H401	H40	0.635700	0.574600	0.934700
H411	H41	0.700200	0.540000	0.930400
H421	H42	0.596300	0.373400	0.948900
H431	H43	0.694400	0.439400	0.883000
H441	H44	0.628100	0.404400	0.851100
C811	C81	0.534200	0.475300	0.882500
C821	C82	0.686600	0.577800	0.785400
C831	C83	0.642200	0.524700	0.941100
C841	C84	0.636800	0.422200	0.891200
N131	N13	0.623600	0.500000	0.876400
H451	H45	0.001400	0.398800	0.473600
H461	H46	0.065300	0.429600	0.509300
H471	H47	0.069600	0.369400	0.470400
H481	H48	0.051100	0.454800	0.322300
H491	H49	0.117000	0.422600	0.322400
H501	H50	0.148900	0.520800	0.255500
H511	H51	0.127600	0.601200	0.397400
H521	H52	0.061100	0.570400	0.364300
H531	H53	0.160200	0.630600	0.299800
H541	H54	0.222900	0.545200	0.403700
H551	H55	0.255000	0.577400	0.305600
H561	H56	0.223700	0.479200	0.371900
C851	C85	0.058900	0.416700	0.465800
C861	C86	0.108800	0.472000	0.313400
C871	C87	0.117500	0.583300	0.357800
C881	C88	0.214600	0.528000	0.363200
N141	N14	0.123600	0.500000	0.376400
H571	H57	0.473600	0.475000	0.127600
H581	H58	0.509300	0.574600	0.061100
H591	H59	0.470400	0.540000	0.160200
H601	H60	0.322300	0.373400	0.222900
H611	H61	0.322400	0.439400	0.255000
H621	H62	0.255500	0.404400	0.223700
H631	H63	0.397400	0.525000	0.001400
H641	H64	0.364300	0.425400	0.065300
H651	H65	0.299800	0.460000	0.069600
H661	H66	0.403700	0.626600	0.051100
H671	H67	0.305600	0.560600	0.117000
H681	H68	0.371900	0.595600	0.148900
C891	C89	0.465800	0.524700	0.117500
C901	C90	0.313400	0.422200	0.214600
C911	C91	0.357800	0.475300	0.058900
C921	C92	0.363200	0.577800	0.108800
N151	N15	0.376400	0.500000	0.123600
H691	H69	0.998600	0.601200	0.526400
H701	H70	0.934700	0.570400	0.490700
H711	H71	0.930400	0.630600	0.529600
H721	H72	0.948900	0.545200	0.677700
H731	H73	0.883000	0.577400	0.677600
H741	H74	0.851100	0.479200	0.744500
H751	H75	0.872400	0.398800	0.602600
H761	H76	0.938900	0.429600	0.635700
H771	H77	0.839800	0.369400	0.700200
H781	H78	0.777100	0.454800	0.596300
H791	H79	0.745000	0.422600	0.694400
H801	H80	0.776300	0.520800	0.628100
C931	C93	0.941100	0.583300	0.534200
C941	C94	0.891200	0.528000	0.686600
C951	C95	0.882500	0.416700	0.642200
C961	C96	0.785400	0.472000	0.636800
N161	N16	0.876400	0.500000	0.623600
