data_ZARPUF_clean_PM
_symmetry_space_group_name_H-M	'P1'
_cell_length_a	11.883000
_cell_length_b	11.883000
_cell_length_c	18.066000
_cell_angle_alpha	90.000000
_cell_angle_beta	90.000000
_cell_angle_gamma	120.000000
_symmetry_Int_Tables_number 1

loop_
_symmetry_equiv_pos_as_xyz
'x,y,z'

loop_
_atom_site_label
_atom_site_type_symbol
_atom_site_fract_x
_atom_site_fract_y
_atom_site_fract_z
U11	U1	0.856520	0.442240	0.957720
U21	U2	0.585720	0.143480	0.624390
U31	U3	0.557760	0.414280	0.291060
U41	U4	0.414280	0.557760	0.042280
U51	U5	0.442240	0.856520	0.375610
U61	U6	0.143480	0.585720	0.708940
P11	P1	0.512900	0.336900	0.968860
P21	P2	0.661200	0.485400	0.099440
P31	P3	0.824000	0.487100	0.635530
P41	P4	0.824200	0.338800	0.766110
P51	P5	0.663100	0.176000	0.302190
P61	P6	0.514600	0.175800	0.432770
P71	P7	0.176000	0.663100	0.031140
P81	P8	0.175800	0.514600	0.900560
P91	P9	0.336900	0.512900	0.364470
P101	P10	0.485400	0.661200	0.233890
P111	P11	0.487100	0.824000	0.697810
P121	P12	0.338800	0.824200	0.567230
H11	H1	0.462700	0.295900	0.094600
H21	H2	0.577300	0.267700	0.073400
H31	H3	0.833200	0.537300	0.761270
H41	H4	0.690400	0.422700	0.740070
H51	H5	0.704100	0.166800	0.427930
H61	H6	0.732300	0.309600	0.406730
H71	H7	0.166800	0.704100	0.905400
H81	H8	0.309600	0.732300	0.926600
H91	H9	0.295900	0.462700	0.238730
H101	H10	0.267700	0.577300	0.259930
H111	H11	0.537300	0.833200	0.572070
H121	H12	0.422700	0.690400	0.593270
C11	C1	0.544400	0.328700	0.066200
C21	C2	0.784300	0.455600	0.732870
C31	C3	0.671300	0.215700	0.399530
C41	C4	0.215700	0.671300	0.933800
C51	C5	0.328700	0.544400	0.267130
C61	C6	0.455600	0.784300	0.600470
O11	O1	0.788200	0.522900	0.059200
O21	O2	0.685500	0.479100	0.182000
O31	O3	0.613400	0.579000	0.081900
O41	O4	0.464500	0.433400	0.960400
O51	O5	0.643500	0.387400	0.930600
O61	O6	0.415200	0.203800	0.940100
O71	O7	0.734700	0.211800	0.725870
O81	O8	0.793600	0.314500	0.848670
O91	O9	0.965600	0.386600	0.748570
O101	O10	0.968900	0.535500	0.627070
O111	O11	0.743900	0.356500	0.597270
O121	O12	0.788600	0.584800	0.606770
O131	O13	0.477100	0.265300	0.392530
O141	O14	0.520900	0.206400	0.515330
O151	O15	0.421000	0.034400	0.415230
O161	O16	0.566600	0.031100	0.293730
O171	O17	0.612600	0.256100	0.263930
O181	O18	0.796200	0.211400	0.273430
O191	O19	0.265300	0.477100	0.940800
O201	O20	0.206400	0.520900	0.818000
O211	O21	0.034400	0.421000	0.918100
O221	O22	0.031100	0.566600	0.039600
O231	O23	0.256100	0.612600	0.069400
O241	O24	0.211400	0.796200	0.059900
O251	O25	0.522900	0.788200	0.274130
O261	O26	0.479100	0.685500	0.151330
O271	O27	0.579000	0.613400	0.251430
O281	O28	0.433400	0.464500	0.372930
O291	O29	0.387400	0.643500	0.402730
O301	O30	0.203800	0.415200	0.393230
O311	O31	0.211800	0.734700	0.607470
O321	O32	0.314500	0.793600	0.484670
O331	O33	0.386600	0.965600	0.584770
O341	O34	0.535500	0.968900	0.706270
O351	O35	0.356500	0.743900	0.736070
O361	O36	0.584800	0.788600	0.726570
