data_ZARTAP03_clean_PM
_symmetry_space_group_name_H-M	'P1'
_cell_length_a	7.349500
_cell_length_b	13.199600
_cell_length_c	13.199600
_cell_angle_alpha	63.363400
_cell_angle_beta	79.304000
_cell_angle_gamma	100.696000
_symmetry_Int_Tables_number 1

loop_
_symmetry_equiv_pos_as_xyz
'x,y,z'

loop_
_atom_site_label
_atom_site_type_symbol
_atom_site_fract_x
_atom_site_fract_y
_atom_site_fract_z
Fe11	Fe1	0.000000	0.000000	0.000000
Fe21	Fe2	0.500000	0.000000	0.000000
H11	H1	0.904900	0.744200	0.000400
H21	H2	0.296500	0.550900	0.114900
H31	H3	0.819900	0.627500	0.888200
H41	H4	0.905300	0.000400	0.255400
H51	H5	0.411400	0.114900	0.334200
H61	H6	0.708100	0.888200	0.484300
H71	H7	0.160700	0.255400	0.744200
H81	H8	0.745600	0.334200	0.550900
H91	H9	0.192400	0.484300	0.627500
H101	H10	0.095100	0.255800	0.999600
H111	H11	0.703500	0.449100	0.885100
H121	H12	0.180100	0.372500	0.111800
H131	H13	0.094700	0.999600	0.744600
H141	H14	0.588600	0.885100	0.665800
H151	H15	0.291900	0.111800	0.515700
H161	H16	0.839300	0.744600	0.255800
H171	H17	0.254400	0.665800	0.449100
H181	H18	0.807600	0.515700	0.372500
C11	C1	0.627340	0.718670	0.999950
C21	C2	0.564700	0.605860	0.999760
C31	C3	0.380000	0.530400	0.066800
C41	C4	0.688900	0.576300	0.933000
C51	C5	0.627290	0.999950	0.281380
C61	C6	0.564460	0.999760	0.394380
C71	C7	0.446800	0.066800	0.402800
C81	C8	0.621900	0.933000	0.490700
C91	C9	0.908670	0.281380	0.718670
C101	C10	0.958840	0.394380	0.605860
C111	C11	0.849600	0.402800	0.530400
C121	C12	0.112600	0.490700	0.576300
C131	C13	0.372660	0.281330	0.000050
C141	C14	0.435300	0.394140	0.000240
C151	C15	0.620000	0.469600	0.933200
C161	C16	0.311100	0.423700	0.067000
C171	C17	0.372710	0.000050	0.718620
C181	C18	0.435540	0.000240	0.605620
C191	C19	0.553200	0.933200	0.597200
C201	C20	0.378100	0.067000	0.509300
C211	C21	0.091330	0.718620	0.281330
C221	C22	0.041160	0.605620	0.394140
C231	C23	0.150400	0.597200	0.469600
C241	C24	0.887400	0.509300	0.423700
N11	N1	0.503870	0.781940	0.000130
N21	N2	0.609190	0.876210	0.999840
N31	N3	0.786120	0.870170	0.000010
N41	N4	0.800350	0.770520	0.000170
N51	N5	0.504000	0.000130	0.217930
N61	N6	0.609030	0.999840	0.123950
N71	N7	0.786130	0.000010	0.129820
N81	N8	0.800520	0.000170	0.229310
N91	N9	0.721930	0.217930	0.781940
N101	N10	0.732980	0.123950	0.876210
N111	N11	0.915950	0.129820	0.870170
N121	N12	0.029830	0.229310	0.770520
N131	N13	0.496130	0.218060	0.999870
N141	N14	0.390810	0.123790	0.000160
N151	N15	0.213880	0.129830	0.999990
N161	N16	0.199650	0.229480	0.999830
N171	N17	0.496000	0.999870	0.782070
N181	N18	0.390970	0.000160	0.876050
N191	N19	0.213870	0.999990	0.870180
N201	N20	0.199480	0.999830	0.770690
N211	N21	0.278070	0.782070	0.218060
N221	N22	0.267020	0.876050	0.123790
N231	N23	0.084050	0.870180	0.129830
N241	N24	0.970170	0.770690	0.229480
