data_ZARZAV_clean_PM
_symmetry_space_group_name_H-M	'P1'
_cell_length_a	11.752700
_cell_length_b	12.482900
_cell_length_c	16.608900
_cell_angle_alpha	90.000000
_cell_angle_beta	90.477000
_cell_angle_gamma	90.000000
_symmetry_Int_Tables_number 1

loop_
_symmetry_equiv_pos_as_xyz
'x,y,z'

loop_
_atom_site_label
_atom_site_type_symbol
_atom_site_fract_x
_atom_site_fract_y
_atom_site_fract_z
Zn11	Zn1	0.648650	0.751970	0.749470
Zn21	Zn2	0.351350	0.248030	0.250530
H11	H1	0.735700	0.739400	0.577300
H21	H2	0.819500	0.923900	0.757000
H31	H3	0.878600	0.807300	0.500700
H41	H4	0.959200	0.002800	0.683700
H51	H5	0.077100	0.005100	0.566400
H61	H6	0.070700	0.907800	0.506600
H71	H7	0.075000	0.484800	0.933900
H81	H8	0.078400	0.586100	0.990000
H91	H9	0.963500	0.500100	0.812100
H101	H10	0.886800	0.692000	0.996800
H111	H11	0.823300	0.583100	0.738200
H121	H12	0.746100	0.766900	0.918800
H131	H13	0.264300	0.260600	0.422700
H141	H14	0.180500	0.076100	0.243000
H151	H15	0.121400	0.192700	0.499300
H161	H16	0.040800	0.997200	0.316300
H171	H17	0.922900	0.994900	0.433600
H181	H18	0.929300	0.092200	0.493400
H191	H19	0.925000	0.515200	0.066100
H201	H20	0.921600	0.413900	0.010000
H211	H21	0.036500	0.499900	0.187900
H221	H22	0.113200	0.308000	0.003200
H231	H23	0.176700	0.416900	0.261800
H241	H24	0.253900	0.233100	0.081200
C11	C1	0.533300	0.660900	0.627500
C21	C2	0.514700	0.575100	0.563900
C31	C3	0.412900	0.564900	0.522300
C41	C4	0.398300	0.492200	0.460500
C51	C5	0.524400	0.975800	0.078100
C61	C6	0.541800	0.901200	0.018800
C71	C7	0.517600	0.923100	0.938000
C81	C8	0.537100	0.839700	0.872800
C91	C9	0.782600	0.792000	0.599400
C101	C10	0.831000	0.901000	0.704500
C111	C11	0.867500	0.833200	0.552600
C121	C12	0.915800	0.948100	0.661100
C131	C13	0.936500	0.913400	0.582700
C141	C14	0.026300	0.963500	0.532300
C151	C15	0.028800	0.532300	0.966400
C161	C16	0.941000	0.585700	0.914000
C171	C17	0.920400	0.554300	0.835200
C181	C18	0.874600	0.667400	0.944600
C191	C19	0.835000	0.604100	0.791300
C201	C20	0.790100	0.712300	0.897100
C211	C21	0.466700	0.339100	0.372500
C221	C22	0.485300	0.424900	0.436100
C231	C23	0.587100	0.435100	0.477700
C241	C24	0.601700	0.507800	0.539500
C251	C25	0.475600	0.024200	0.921900
C261	C26	0.458200	0.098800	0.981200
C271	C27	0.482400	0.076900	0.062000
C281	C28	0.462900	0.160300	0.127200
C291	C29	0.217400	0.208000	0.400600
C301	C30	0.169000	0.099000	0.295500
C311	C31	0.132500	0.166800	0.447400
C321	C32	0.084200	0.051900	0.338900
C331	C33	0.063500	0.086600	0.417300
C341	C34	0.973700	0.036500	0.467700
C351	C35	0.971200	0.467700	0.033600
C361	C36	0.059000	0.414300	0.086000
C371	C37	0.079600	0.445700	0.164800
C381	C38	0.125400	0.332600	0.055400
C391	C39	0.165000	0.395900	0.208700
C401	C40	0.209900	0.287700	0.102900
N11	N1	0.763600	0.823500	0.675100
N21	N2	0.768500	0.680900	0.821200
N31	N3	0.236400	0.176500	0.324900
N41	N4	0.231500	0.319100	0.178800
O11	O1	0.587400	0.629300	0.690700
O21	O2	0.501200	0.753000	0.614600
O31	O3	0.593200	0.872800	0.812470
O41	O4	0.504300	0.747500	0.883020
O51	O5	0.412600	0.370700	0.309300
O61	O6	0.498800	0.247000	0.385400
O71	O7	0.406800	0.127200	0.187530
O81	O8	0.495700	0.252500	0.116980
F11	F1	0.322200	0.622700	0.544640
F21	F2	0.294500	0.486400	0.425580
F31	F3	0.551400	0.947600	0.154290
F41	F4	0.586600	0.806100	0.039000
F51	F5	0.677800	0.377300	0.455360
F61	F6	0.705500	0.513600	0.574420
F71	F7	0.448600	0.052400	0.845710
F81	F8	0.413400	0.193900	0.961000
Zn31	Zn3	0.851350	0.251970	0.750530
Zn41	Zn4	0.148650	0.748030	0.249470
H251	H25	0.764300	0.239400	0.922700
H261	H26	0.680500	0.423900	0.743000
H271	H27	0.621400	0.307300	0.999300
H281	H28	0.540800	0.502800	0.816300
H291	H29	0.422900	0.505100	0.933600
H301	H30	0.429300	0.407800	0.993400
H311	H31	0.425000	0.984800	0.566100
H321	H32	0.421600	0.086100	0.510000
H331	H33	0.536500	0.000100	0.687900
H341	H34	0.613200	0.192000	0.503200
H351	H35	0.676700	0.083100	0.761800
H361	H36	0.753900	0.266900	0.581200
H371	H37	0.235700	0.760600	0.077300
H381	H38	0.319500	0.576100	0.257000
H391	H39	0.378600	0.692700	0.000700
H401	H40	0.459200	0.497200	0.183700
H411	H41	0.577100	0.494900	0.066400
H421	H42	0.570700	0.592200	0.006600
H431	H43	0.575000	0.015200	0.433900
H441	H44	0.578400	0.913900	0.490000
H451	H45	0.463500	0.999900	0.312100
H461	H46	0.386800	0.808000	0.496800
H471	H47	0.323300	0.916900	0.238200
H481	H48	0.246100	0.733100	0.418800
C411	C41	0.966700	0.160900	0.872500
C421	C42	0.985300	0.075100	0.936100
C431	C43	0.087100	0.064900	0.977700
C441	C44	0.101700	0.992200	0.039500
C451	C45	0.975600	0.475800	0.421900
C461	C46	0.958200	0.401200	0.481200
C471	C47	0.982400	0.423100	0.562000
C481	C48	0.962900	0.339700	0.627200
C491	C49	0.717400	0.292000	0.900600
C501	C50	0.669000	0.401000	0.795500
C511	C51	0.632500	0.333200	0.947400
C521	C52	0.584200	0.448100	0.838900
C531	C53	0.563500	0.413400	0.917300
C541	C54	0.473700	0.463500	0.967700
C551	C55	0.471200	0.032300	0.533600
C561	C56	0.559000	0.085700	0.586000
C571	C57	0.579600	0.054300	0.664800
C581	C58	0.625400	0.167400	0.555400
C591	C59	0.665000	0.104100	0.708700
C601	C60	0.709900	0.212300	0.602900
C611	C61	0.033300	0.839100	0.127500
C621	C62	0.014700	0.924900	0.063900
C631	C63	0.912900	0.935100	0.022300
C641	C64	0.898300	0.007800	0.960500
C651	C65	0.024400	0.524200	0.578100
C661	C66	0.041800	0.598800	0.518800
C671	C67	0.017600	0.576900	0.438000
C681	C68	0.037100	0.660300	0.372800
C691	C69	0.282600	0.708000	0.099400
C701	C70	0.331000	0.599000	0.204500
C711	C71	0.367500	0.666800	0.052600
C721	C72	0.415800	0.551900	0.161100
C731	C73	0.436500	0.586600	0.082700
C741	C74	0.526300	0.536500	0.032300
C751	C75	0.528800	0.967700	0.466400
C761	C76	0.441000	0.914300	0.414000
C771	C77	0.420400	0.945700	0.335200
C781	C78	0.374600	0.832600	0.444600
C791	C79	0.335000	0.895900	0.291300
C801	C80	0.290100	0.787700	0.397100
N51	N5	0.736400	0.323500	0.824900
N61	N6	0.731500	0.180900	0.678800
N71	N7	0.263600	0.676500	0.175100
N81	N8	0.268500	0.819100	0.321200
O91	O9	0.912600	0.129300	0.809300
O101	O10	0.998800	0.253000	0.885400
O111	O11	0.906800	0.372800	0.687530
O121	O12	0.995700	0.247500	0.616980
O131	O13	0.087400	0.870700	0.190700
O141	O14	0.001200	0.747000	0.114600
O151	O15	0.093200	0.627200	0.312470
O161	O16	0.004300	0.752500	0.383020
F91	F9	0.177800	0.122700	0.955360
F101	F10	0.205500	0.986400	0.074420
F111	F11	0.948600	0.447600	0.345710
F121	F12	0.913400	0.306100	0.461000
F131	F13	0.822200	0.877300	0.044640
F141	F14	0.794500	0.013600	0.925580
F151	F15	0.051400	0.552400	0.654290
F161	F16	0.086600	0.693900	0.539000
