data_ZASJAG_clean_PM
_symmetry_space_group_name_H-M	'P1'
_cell_length_a	7.544000
_cell_length_b	14.729700
_cell_length_c	14.729700
_cell_angle_alpha	116.916000
_cell_angle_beta	104.428000
_cell_angle_gamma	75.572100
_symmetry_Int_Tables_number 1

loop_
_symmetry_equiv_pos_as_xyz
'x,y,z'

loop_
_atom_site_label
_atom_site_type_symbol
_atom_site_fract_x
_atom_site_fract_y
_atom_site_fract_z
Cd11	Cd1	0.751570	0.918900	0.132620
Cd21	Cd2	0.251570	0.867380	0.081100
H11	H1	0.861400	0.615300	0.838900
H21	H2	0.958700	0.445700	0.726500
H31	H3	0.214100	0.569700	0.073300
H41	H4	0.306300	0.402800	0.963800
H51	H5	0.031000	0.289400	0.632200
H61	H6	0.937600	0.221700	0.475700
H71	H7	0.796700	0.137000	0.307800
H81	H8	0.058500	0.873200	0.301800
H91	H9	0.204200	0.948700	0.464900
H101	H10	0.337800	0.020500	0.612900
H111	H11	0.577100	0.951100	0.675500
H121	H12	0.795500	0.861100	0.764500
H131	H13	0.749800	0.108700	0.032100
H141	H14	0.533000	0.198200	0.945000
H151	H15	0.361400	0.161100	0.384700
H161	H16	0.458700	0.273500	0.554300
H171	H17	0.714100	0.926700	0.430300
H181	H18	0.806300	0.036200	0.597200
H191	H19	0.531000	0.367800	0.710600
H201	H20	0.437600	0.524300	0.778300
H211	H21	0.296700	0.692200	0.863000
H221	H22	0.558500	0.698200	0.126800
H231	H23	0.704200	0.535100	0.051300
H241	H24	0.837800	0.387100	0.979500
H251	H25	0.077100	0.324500	0.048900
H261	H26	0.295500	0.235500	0.138900
H271	H27	0.249800	0.967900	0.891300
H281	H28	0.033000	0.055000	0.801800
C11	C1	0.964300	0.720600	0.037000
C21	C2	0.028100	0.610900	0.965500
C31	C3	0.952200	0.573000	0.864000
C41	C4	0.009500	0.469900	0.796100
C51	C5	0.141000	0.405100	0.833100
C61	C6	0.162700	0.545100	0.003900
C71	C7	0.216800	0.445300	0.938100
C81	C8	0.199400	0.294800	0.764200
C91	C9	0.120200	0.249700	0.661300
C101	C10	0.172900	0.146400	0.602200
C111	C11	0.086300	0.095000	0.493400
C121	C12	0.964000	0.150300	0.442500
C131	C13	0.879400	0.098100	0.340300
C141	C14	0.032000	0.944500	0.336700
C151	C15	0.119800	0.989800	0.435600
C161	C16	0.302800	0.090900	0.649900
C171	C17	0.381600	0.138300	0.751500
C181	C18	0.526600	0.082300	0.805100
C191	C19	0.608500	0.981900	0.746900
C201	C20	0.741800	0.928600	0.801000
C211	C21	0.792800	0.976000	0.907800
C221	C22	0.715100	0.076000	0.961000
C231	C23	0.582400	0.129800	0.908400
C241	C24	0.943500	0.922100	0.962700
C251	C25	0.464300	0.963000	0.279400
C261	C26	0.528100	0.034500	0.389100
C271	C27	0.452200	0.136000	0.427000
C281	C28	0.509500	0.203900	0.530100
C291	C29	0.641000	0.166900	0.594900
C301	C30	0.662700	0.996100	0.454900
C311	C31	0.716800	0.061900	0.554700
C321	C32	0.699400	0.235800	0.705200
C331	C33	0.620200	0.338700	0.750300
C341	C34	0.672900	0.397800	0.853600
C351	C35	0.586300	0.506600	0.905000
C361	C36	0.464000	0.557500	0.849700
C371	C37	0.379400	0.659700	0.901900
C381	C38	0.532000	0.663300	0.055500
C391	C39	0.619800	0.564400	0.010200
C401	C40	0.802800	0.350100	0.909100
C411	C41	0.881600	0.248500	0.861700
C421	C42	0.026600	0.194900	0.917700
C431	C43	0.108500	0.253100	0.018100
C441	C44	0.241800	0.199000	0.071400
C451	C45	0.292800	0.092200	0.024000
C461	C46	0.215100	0.039000	0.924000
C471	C47	0.082400	0.091600	0.870200
C481	C48	0.443500	0.037300	0.077900
N11	N1	0.326900	0.238500	0.809300
N21	N2	0.911600	0.996400	0.287600
N31	N3	0.826900	0.190700	0.761500
N41	N4	0.411600	0.712400	0.003600
O11	O1	0.805700	0.760800	0.014200
O21	O2	0.082700	0.768500	0.114700
O31	O3	0.957800	0.959500	0.060700
O41	O4	0.053300	0.845900	0.912700
O51	O5	0.305700	0.985800	0.239200
O61	O6	0.582700	0.885300	0.231500
O71	O7	0.457800	0.939300	0.040500
O81	O8	0.553300	0.087300	0.154100
