data_ZASTUK_clean_PM
_symmetry_space_group_name_H-M	'P1'
_cell_length_a	9.531600
_cell_length_b	12.826700
_cell_length_c	15.853700
_cell_angle_alpha	66.138100
_cell_angle_beta	89.115900
_cell_angle_gamma	87.814100
_symmetry_Int_Tables_number 1

loop_
_symmetry_equiv_pos_as_xyz
'x,y,z'

loop_
_atom_site_label
_atom_site_type_symbol
_atom_site_fract_x
_atom_site_fract_y
_atom_site_fract_z
Mn11	Mn1	0.500000	0.500000	0.000000
Mn21	Mn2	0.000000	0.500000	0.000000
Mn31	Mn3	0.250000	0.406200	0.187600
Mn41	Mn4	0.750000	0.593800	0.812400
H11	H1	0.108000	0.272000	0.964200
H21	H2	0.150800	0.179900	0.061600
H31	H3	0.336600	0.111200	0.141000
H41	H4	0.375200	0.131600	0.843600
H51	H5	0.493300	0.965700	0.224800
H61	H6	0.718600	0.263300	0.274000
H71	H7	0.724800	0.209300	0.201600
H81	H8	0.549000	0.283800	0.367000
H91	H9	0.621500	0.913800	0.389600
H101	H10	0.431000	0.261900	0.502600
H111	H11	0.392000	0.763800	0.964200
H121	H12	0.349200	0.758500	0.061600
H131	H13	0.163400	0.747800	0.141000
H141	H14	0.124800	0.024800	0.843600
H151	H15	0.006700	0.809500	0.224800
H161	H16	0.781400	0.462700	0.274000
H171	H17	0.775200	0.589100	0.201600
H181	H18	0.951000	0.349200	0.367000
H191	H19	0.878500	0.696600	0.389600
H201	H20	0.069000	0.235500	0.502600
H211	H21	0.892000	0.728000	0.035800
H221	H22	0.849200	0.820100	0.938400
H231	H23	0.663400	0.888800	0.859000
H241	H24	0.624800	0.868400	0.156400
H251	H25	0.506700	0.034300	0.775200
H261	H26	0.281400	0.736700	0.726000
H271	H27	0.275200	0.790700	0.798400
H281	H28	0.451000	0.716200	0.633000
H291	H29	0.378500	0.086200	0.610400
H301	H30	0.569000	0.738100	0.497400
H311	H31	0.608000	0.236200	0.035800
H321	H32	0.650800	0.241500	0.938400
H331	H33	0.836600	0.252200	0.859000
H341	H34	0.875200	0.975200	0.156400
H351	H35	0.993300	0.190500	0.775200
H361	H36	0.218600	0.537300	0.726000
H371	H37	0.224800	0.410900	0.798400
H381	H38	0.049000	0.650800	0.633000
H391	H39	0.121500	0.303400	0.610400
H401	H40	0.931000	0.764500	0.497400
C11	C1	0.186900	0.238180	0.005440
C21	C2	0.371000	0.101500	0.019500
C31	C3	0.548200	0.306770	0.190460
C41	C4	0.452100	0.044380	0.973640
C51	C5	0.251200	0.329660	0.028960
C61	C6	0.388300	0.072540	0.111720
C71	C7	0.437800	0.073330	0.878540
C81	C8	0.483200	0.985020	0.161960
C91	C9	0.534200	0.005270	0.459260
C101	C10	0.663600	0.225030	0.244740
C111	C11	0.563200	0.117770	0.392660
C121	C12	0.527200	0.211290	0.409620
C131	C13	0.574500	0.906790	0.443420
C141	C14	0.456800	0.197480	0.492040
C151	C15	0.313100	0.756380	0.005440
C161	C16	0.129000	0.879000	0.019500
C171	C17	0.951800	0.502770	0.190460
C181	C18	0.047900	0.981980	0.973640
C191	C19	0.248800	0.641380	0.028960
C201	C20	0.111700	0.815740	0.111720
C211	C21	0.062200	0.048130	0.878540
C221	C22	0.016800	0.853020	0.161960
C231	C23	0.965800	0.535470	0.459260
C241	C24	0.836400	0.530230	0.244740
C251	C25	0.936800	0.489570	0.392660
C261	C26	0.972800	0.379090	0.409620
C271	C27	0.925500	0.649790	0.443420
C281	C28	0.043200	0.310480	0.492040
C291	C29	0.813100	0.761820	0.994560
C301	C30	0.629000	0.898500	0.980500
C311	C31	0.451800	0.693230	0.809540
C321	C32	0.547900	0.955620	0.026360
C331	C33	0.748800	0.670340	0.971040
C341	C34	0.611700	0.927460	0.888280
C351	C35	0.562200	0.926670	0.121460
C361	C36	0.516800	0.014980	0.838040
C371	C37	0.465800	0.994730	0.540740
C381	C38	0.336400	0.774970	0.755260
C391	C39	0.436800	0.882230	0.607340
C401	C40	0.472800	0.788710	0.590380
C411	C41	0.425500	0.093210	0.556580
C421	C42	0.543200	0.802520	0.507960
C431	C43	0.686900	0.243620	0.994560
C441	C44	0.871000	0.121000	0.980500
C451	C45	0.048200	0.497230	0.809540
C461	C46	0.952100	0.018020	0.026360
C471	C47	0.751200	0.358620	0.971040
C481	C48	0.888300	0.184260	0.888280
C491	C49	0.937800	0.951870	0.121460
C501	C50	0.983200	0.146980	0.838040
C511	C51	0.034200	0.464530	0.540740
C521	C52	0.163600	0.469770	0.755260
C531	C53	0.063200	0.510430	0.607340
C541	C54	0.027200	0.620910	0.590380
C551	C55	0.074500	0.350210	0.556580
C561	C56	0.956800	0.689520	0.507960
O11	O1	0.592190	0.393090	0.126220
O21	O2	0.371890	0.359190	0.004020
O31	O3	0.281950	0.185610	0.963340
O41	O4	0.169030	0.368810	0.074260
O51	O5	0.422650	0.283850	0.212140
O61	O6	0.623800	0.119550	0.313640
O71	O7	0.907810	0.480690	0.126220
O81	O8	0.128110	0.636790	0.004020
O91	O9	0.218050	0.851050	0.963340
O101	O10	0.330970	0.556930	0.074260
O111	O11	0.077350	0.504010	0.212140
O121	O12	0.876200	0.566810	0.313640
O131	O13	0.407810	0.606910	0.873780
O141	O14	0.628110	0.640810	0.995980
O151	O15	0.718050	0.814390	0.036660
O161	O16	0.830970	0.631190	0.925740
O171	O17	0.577350	0.716150	0.787860
O181	O18	0.376200	0.880450	0.686360
O191	O19	0.092190	0.519310	0.873780
O201	O20	0.871890	0.363210	0.995980
O211	O21	0.781950	0.148950	0.036660
O221	O22	0.669030	0.443070	0.925740
O231	O23	0.922650	0.495990	0.787860
O241	O24	0.123800	0.433190	0.686360
