data_ZASWOF_clean_PM
_symmetry_space_group_name_H-M	'P1'
_cell_length_a	5.707000
_cell_length_b	8.749000
_cell_length_c	13.442000
_cell_angle_alpha	90.000000
_cell_angle_beta	90.000000
_cell_angle_gamma	90.000000
_symmetry_Int_Tables_number 1

loop_
_symmetry_equiv_pos_as_xyz
'x,y,z'

loop_
_atom_site_label
_atom_site_type_symbol
_atom_site_fract_x
_atom_site_fract_y
_atom_site_fract_z
Np11	Np1	0.500000	0.673070	0.476820
Np21	Np2	0.000000	0.326930	0.523180
Np31	Np3	0.500000	0.826930	0.976820
Np41	Np4	0.000000	0.173070	0.023180
C11	C1	0.495000	0.761300	0.235400
C21	C2	0.341000	0.627000	0.230000
C31	C3	0.995000	0.238700	0.764600
C41	C4	0.841000	0.373000	0.770000
C51	C5	0.495000	0.738700	0.735400
C61	C6	0.341000	0.873000	0.730000
C71	C7	0.995000	0.261300	0.264600
C81	C8	0.841000	0.127000	0.270000
O11	O1	0.732000	0.529500	0.471000
O21	O2	0.605000	0.788000	0.315400
O31	O3	0.548000	0.834800	0.155600
O41	O4	0.318000	0.567000	0.325400
O51	O5	0.232000	0.470500	0.529000
O61	O6	0.105000	0.212000	0.684600
O71	O7	0.048000	0.165200	0.844400
O81	O8	0.818000	0.433000	0.674600
O91	O9	0.732000	0.970500	0.971000
O101	O10	0.605000	0.712000	0.815400
O111	O11	0.548000	0.665200	0.655600
O121	O12	0.318000	0.933000	0.825400
O131	O13	0.232000	0.029500	0.029000
O141	O14	0.105000	0.288000	0.184600
O151	O15	0.048000	0.334800	0.344400
O161	O16	0.818000	0.067000	0.174600
