data_ZAVPIX_clean_PM
_symmetry_space_group_name_H-M	'P1'
_cell_length_a	14.216600
_cell_length_b	14.216600
_cell_length_c	15.830200
_cell_angle_alpha	82.483000
_cell_angle_beta	65.057500
_cell_angle_gamma	112.629000
_symmetry_Int_Tables_number 1

loop_
_symmetry_equiv_pos_as_xyz
'x,y,z'

loop_
_atom_site_label
_atom_site_type_symbol
_atom_site_fract_x
_atom_site_fract_y
_atom_site_fract_z
Ce11	Ce1	0.859280	0.359100	0.121500
Ce21	Ce2	0.980600	0.980780	0.378500
Ce31	Ce3	0.140720	0.640900	0.878500
Ce41	Ce4	0.019400	0.019220	0.621500
H11	H1	0.878400	0.165100	0.395700
H21	H2	0.718600	0.349300	0.472300
H31	H3	0.803800	0.222300	0.654900
H41	H4	0.693700	0.267700	0.924000
H51	H5	0.973200	0.544800	0.701200
H61	H6	0.894600	0.507900	0.600300
H71	H7	0.060800	0.274100	0.104300
H81	H8	0.321600	0.190900	0.027700
H91	H9	0.377200	0.458700	0.845100
H101	H10	0.691700	0.617700	0.576000
H111	H11	0.746000	0.674400	0.798800
H121	H12	0.608200	0.494900	0.899700
H131	H13	0.121600	0.834900	0.604300
H141	H14	0.281400	0.650700	0.527700
H151	H15	0.196200	0.777700	0.345100
H161	H16	0.306300	0.732300	0.076000
H171	H17	0.026800	0.455200	0.298800
H181	H18	0.105400	0.492100	0.399700
H191	H19	0.939200	0.725900	0.895700
H201	H20	0.678400	0.809100	0.972300
H211	H21	0.622800	0.541300	0.154900
H221	H22	0.308300	0.382300	0.424000
H231	H23	0.254000	0.325600	0.201200
H241	H24	0.391800	0.505100	0.100300
C11	C1	0.846300	0.181500	0.530200
C21	C2	0.846400	0.197200	0.441200
C31	C3	0.798700	0.260500	0.419400
C41	C4	0.752500	0.307700	0.486000
C51	C5	0.756400	0.293400	0.572000
C61	C6	0.802300	0.231100	0.595000
C71	C7	0.750300	0.362200	0.699500
C81	C8	0.690300	0.291900	0.796400
C91	C9	0.735900	0.315800	0.857300
C101	C10	0.842200	0.408800	0.822000
C111	C11	0.900500	0.479900	0.725800
C121	C12	0.854600	0.457500	0.665700
C131	C13	0.890000	0.111500	0.560500
C141	C14	0.799800	0.279100	0.323500
C151	C15	0.896600	0.430700	0.886300
C161	C16	0.211700	0.376500	0.969800
C171	C17	0.138400	0.287600	0.058800
C181	C18	0.179900	0.218100	0.080600
C191	C19	0.293700	0.238500	0.014000
C201	C20	0.365400	0.328400	0.928000
C211	C21	0.326100	0.397300	0.905000
C221	C22	0.561700	0.449800	0.800500
C231	C23	0.588300	0.486700	0.703600
C241	C24	0.673100	0.593200	0.642700
C251	C25	0.730800	0.664200	0.678000
C261	C26	0.705700	0.626300	0.774200
C271	C27	0.623200	0.520300	0.834300
C281	C28	0.172000	0.450500	0.939500
C291	C29	0.102600	0.123300	0.176500
C301	C30	0.817000	0.782900	0.613700
C311	C31	0.153700	0.818500	0.469800
C321	C32	0.153600	0.802800	0.558800
C331	C33	0.201300	0.739500	0.580600
C341	C34	0.247500	0.692300	0.514000
C351	C35	0.243600	0.706600	0.428000
C361	C36	0.197700	0.768900	0.405000
C371	C37	0.249700	0.637800	0.300500
C381	C38	0.309700	0.708100	0.203600
C391	C39	0.264100	0.684200	0.142700
C401	C40	0.157800	0.591200	0.178000
C411	C41	0.099500	0.520100	0.274200
C421	C42	0.145400	0.542500	0.334300
C431	C43	0.110000	0.888500	0.439500
C441	C44	0.200200	0.720900	0.676500
C451	C45	0.103400	0.569300	0.113700
C461	C46	0.788300	0.623500	0.030200
C471	C47	0.861600	0.712400	0.941200
C481	C48	0.820100	0.781900	0.919400
C491	C49	0.706300	0.761500	0.986000
C501	C50	0.634600	0.671600	0.072000
C511	C51	0.673900	0.602700	0.095000
C521	C52	0.438300	0.550200	0.199500
C531	C53	0.411700	0.513300	0.296400
C541	C54	0.326900	0.406800	0.357300
C551	C55	0.269200	0.335800	0.322000
C561	C56	0.294300	0.373700	0.225800
C571	C57	0.376800	0.479700	0.165700
C581	C58	0.828000	0.549500	0.060500
C591	C59	0.897400	0.876700	0.823500
C601	C60	0.183000	0.217100	0.386300
N11	N1	0.578600	0.190100	0.838500
N21	N2	0.528600	0.417100	0.661500
N31	N3	0.421400	0.809900	0.161500
N41	N4	0.471400	0.582900	0.338500
O11	O1	0.897900	0.110900	0.636600
O21	O2	0.917970	0.054430	0.510600
O31	O3	0.847600	0.240400	0.261400
O41	O4	0.754450	0.333850	0.307100
O51	O5	0.549900	0.153600	0.782700
O61	O6	0.518400	0.146300	0.928900
O71	O7	0.834900	0.369300	0.974800
O81	O8	0.000100	0.509000	0.844300
O91	O9	0.709400	0.343800	0.634400
O101	O10	0.247500	0.534500	0.863400
O111	O11	0.065030	0.428570	0.989400
O121	O12	0.001800	0.109000	0.238600
O131	O13	0.140950	0.061550	0.192900
O141	O14	0.436300	0.332600	0.717300
O151	O15	0.575200	0.447300	0.571100
O161	O16	0.844100	0.809700	0.525200
O171	O17	0.853300	0.844400	0.655700
O181	O18	0.478200	0.343800	0.865600
O191	O19	0.102100	0.889100	0.363400
O201	O20	0.082030	0.945570	0.489400
O211	O21	0.152400	0.759600	0.738600
O221	O22	0.245550	0.666150	0.692900
O231	O23	0.450100	0.846400	0.217300
O241	O24	0.481600	0.853700	0.071100
O251	O25	0.165100	0.630700	0.025200
O261	O26	0.999900	0.491000	0.155700
O271	O27	0.290600	0.656200	0.365600
O281	O28	0.752500	0.465500	0.136600
O291	O29	0.934970	0.571430	0.010600
O301	O30	0.998200	0.891000	0.761400
O311	O31	0.859050	0.938450	0.807100
O321	O32	0.563700	0.667400	0.282700
O331	O33	0.424800	0.552700	0.428900
O341	O34	0.155900	0.190300	0.474800
O351	O35	0.146700	0.155600	0.344300
O361	O36	0.521800	0.656200	0.134400
