data_ZAVPUJ_clean_PM
_symmetry_space_group_name_H-M	'P1'
_cell_length_a	23.649000
_cell_length_b	15.765400
_cell_length_c	16.218200
_cell_angle_alpha	90.000000
_cell_angle_beta	124.272000
_cell_angle_gamma	90.000000
_symmetry_Int_Tables_number 1

loop_
_symmetry_equiv_pos_as_xyz
'x,y,z'

loop_
_atom_site_label
_atom_site_type_symbol
_atom_site_fract_x
_atom_site_fract_y
_atom_site_fract_z
Nd11	Nd1	0.689310	0.328710	0.878630
C11	C1	0.402100	0.222600	0.469700
C21	C2	0.416200	0.187600	0.404100
H11	H1	0.380700	0.162100	0.343700
C31	C3	0.482300	0.190400	0.427700
C41	C4	0.534300	0.227800	0.514600
H21	H2	0.579200	0.230600	0.529000
C51	C5	0.520700	0.261500	0.581400
C61	C6	0.454700	0.258200	0.559300
H31	H3	0.445600	0.280100	0.605200
C71	C7	0.454800	0.094700	0.299200
C81	C8	0.401400	0.111000	0.201200
C91	C9	0.359900	0.044900	0.140600
H41	H4	0.323000	0.056200	0.073800
C101	C10	0.371600	0.962700	0.176700
C111	C11	0.427200	0.947200	0.273700
H51	H5	0.436800	0.890800	0.298600
C121	C12	0.468600	0.012600	0.334200
H61	H6	0.506600	0.000900	0.400100
C131	C13	0.329400	0.220800	0.439200
C141	C14	0.324400	0.892200	0.113100
C151	C15	0.578200	0.298100	0.677400
N11	N1	0.384600	0.196200	0.158200
O11	O1	0.312200	0.260500	0.489900
O21	O2	0.286840	0.179000	0.363000
O31	O3	0.407500	0.257200	0.213700
O41	O4	0.348300	0.202700	0.067200
O51	O5	0.279620	0.909100	0.023400
O61	O6	0.333200	0.822400	0.156100
O71	O7	0.637040	0.301100	0.694700
O81	O8	0.566530	0.324000	0.740700
O91	O9	0.498920	0.158000	0.364100
Nd21	Nd2	0.189310	0.828710	0.878630
C161	C16	0.902100	0.722600	0.469700
C171	C17	0.916200	0.687600	0.404100
H71	H7	0.880700	0.662100	0.343700
C181	C18	0.982300	0.690400	0.427700
C191	C19	0.034300	0.727800	0.514600
H81	H8	0.079200	0.730600	0.529000
C201	C20	0.020700	0.761500	0.581400
C211	C21	0.954700	0.758200	0.559300
H91	H9	0.945600	0.780100	0.605200
C221	C22	0.954800	0.594700	0.299200
C231	C23	0.901400	0.611000	0.201200
C241	C24	0.859900	0.544900	0.140600
H101	H10	0.823000	0.556200	0.073800
C251	C25	0.871600	0.462700	0.176700
C261	C26	0.927200	0.447200	0.273700
H111	H11	0.936800	0.390800	0.298600
C271	C27	0.968600	0.512600	0.334200
H121	H12	0.006600	0.500900	0.400100
C281	C28	0.829400	0.720800	0.439200
C291	C29	0.824400	0.392200	0.113100
C301	C30	0.078200	0.798100	0.677400
N21	N2	0.884600	0.696200	0.158200
O101	O10	0.812200	0.760500	0.489900
O111	O11	0.786840	0.679000	0.363000
O121	O12	0.907500	0.757200	0.213700
O131	O13	0.848300	0.702700	0.067200
O141	O14	0.779620	0.409100	0.023400
O151	O15	0.833200	0.322400	0.156100
O161	O16	0.137040	0.801100	0.694700
O171	O17	0.066530	0.824000	0.740700
O181	O18	0.998920	0.658000	0.364100
Nd31	Nd3	0.310690	0.328710	0.621370
C311	C31	0.597900	0.222600	0.030300
C321	C32	0.583800	0.187600	0.095900
H131	H13	0.619300	0.162100	0.156300
C331	C33	0.517700	0.190400	0.072300
C341	C34	0.465700	0.227800	0.985400
H141	H14	0.420800	0.230600	0.971000
C351	C35	0.479300	0.261500	0.918600
C361	C36	0.545300	0.258200	0.940700
H151	H15	0.554400	0.280100	0.894800
C371	C37	0.545200	0.094700	0.200800
C381	C38	0.598600	0.111000	0.298800
C391	C39	0.640100	0.044900	0.359400
H161	H16	0.677000	0.056200	0.426200
C401	C40	0.628400	0.962700	0.323300
C411	C41	0.572800	0.947200	0.226300
H171	H17	0.563200	0.890800	0.201400
C421	C42	0.531400	0.012600	0.165800
H181	H18	0.493400	0.000900	0.099900
C431	C43	0.670600	0.220800	0.060800
C441	C44	0.675600	0.892200	0.386900
C451	C45	0.421800	0.298100	0.822600
N31	N3	0.615400	0.196200	0.341800
O191	O19	0.687800	0.260500	0.010100
O201	O20	0.713160	0.179000	0.137000
O211	O21	0.592500	0.257200	0.286300
O221	O22	0.651700	0.202700	0.432800
O231	O23	0.720380	0.909100	0.476600
O241	O24	0.666800	0.822400	0.343900
O251	O25	0.362960	0.301100	0.805300
O261	O26	0.433470	0.324000	0.759300
O271	O27	0.501080	0.158000	0.135900
Nd41	Nd4	0.810690	0.828710	0.621370
C461	C46	0.097900	0.722600	0.030300
C471	C47	0.083800	0.687600	0.095900
H191	H19	0.119300	0.662100	0.156300
C481	C48	0.017700	0.690400	0.072300
C491	C49	0.965700	0.727800	0.985400
H201	H20	0.920800	0.730600	0.971000
C501	C50	0.979300	0.761500	0.918600
C511	C51	0.045300	0.758200	0.940700
H211	H21	0.054400	0.780100	0.894800
C521	C52	0.045200	0.594700	0.200800
C531	C53	0.098600	0.611000	0.298800
C541	C54	0.140100	0.544900	0.359400
H221	H22	0.177000	0.556200	0.426200
C551	C55	0.128400	0.462700	0.323300
C561	C56	0.072800	0.447200	0.226300
H231	H23	0.063200	0.390800	0.201400
C571	C57	0.031400	0.512600	0.165800
H241	H24	0.993400	0.500900	0.099900
C581	C58	0.170600	0.720800	0.060800
C591	C59	0.175600	0.392200	0.386900
C601	C60	0.921800	0.798100	0.822600
N41	N4	0.115400	0.696200	0.341800
O281	O28	0.187800	0.760500	0.010100
O291	O29	0.213160	0.679000	0.137000
O301	O30	0.092500	0.757200	0.286300
O311	O31	0.151700	0.702700	0.432800
O321	O32	0.220380	0.409100	0.476600
O331	O33	0.166800	0.322400	0.343900
O341	O34	0.862960	0.801100	0.805300
O351	O35	0.933470	0.824000	0.759300
O361	O36	0.001080	0.658000	0.135900
Nd51	Nd5	0.310690	0.671290	0.121370
C611	C61	0.597900	0.777400	0.530300
C621	C62	0.583800	0.812400	0.595900
H251	H25	0.619300	0.837900	0.656300
C631	C63	0.517700	0.809600	0.572300
C641	C64	0.465700	0.772200	0.485400
H261	H26	0.420800	0.769400	0.471000
C651	C65	0.479300	0.738500	0.418600
C661	C66	0.545300	0.741800	0.440700
H271	H27	0.554400	0.719900	0.394800
C671	C67	0.545200	0.905300	0.700800
C681	C68	0.598600	0.889000	0.798800
C691	C69	0.640100	0.955100	0.859400
H281	H28	0.677000	0.943800	0.926200
C701	C70	0.628400	0.037300	0.823300
C711	C71	0.572800	0.052800	0.726300
H291	H29	0.563200	0.109200	0.701400
C721	C72	0.531400	0.987400	0.665800
H301	H30	0.493400	0.999100	0.599900
C731	C73	0.670600	0.779200	0.560800
C741	C74	0.675600	0.107800	0.886900
C751	C75	0.421800	0.701900	0.322600
N51	N5	0.615400	0.803800	0.841800
O371	O37	0.687800	0.739500	0.510100
O381	O38	0.713160	0.821000	0.637000
O391	O39	0.592500	0.742800	0.786300
O401	O40	0.651700	0.797300	0.932800
O411	O41	0.720380	0.090900	0.976600
O421	O42	0.666800	0.177600	0.843900
O431	O43	0.362960	0.698900	0.305300
O441	O44	0.433470	0.676000	0.259300
O451	O45	0.501080	0.842000	0.635900
Nd61	Nd6	0.810690	0.171290	0.121370
C761	C76	0.097900	0.277400	0.530300
C771	C77	0.083800	0.312400	0.595900
H311	H31	0.119300	0.337900	0.656300
C781	C78	0.017700	0.309600	0.572300
C791	C79	0.965700	0.272200	0.485400
H321	H32	0.920800	0.269400	0.471000
C801	C80	0.979300	0.238500	0.418600
C811	C81	0.045300	0.241800	0.440700
H331	H33	0.054400	0.219900	0.394800
C821	C82	0.045200	0.405300	0.700800
C831	C83	0.098600	0.389000	0.798800
C841	C84	0.140100	0.455100	0.859400
H341	H34	0.177000	0.443800	0.926200
C851	C85	0.128400	0.537300	0.823300
C861	C86	0.072800	0.552800	0.726300
H351	H35	0.063200	0.609200	0.701400
C871	C87	0.031400	0.487400	0.665800
H361	H36	0.993400	0.499100	0.599900
C881	C88	0.170600	0.279200	0.560800
C891	C89	0.175600	0.607800	0.886900
C901	C90	0.921800	0.201900	0.322600
N61	N6	0.115400	0.303800	0.841800
O461	O46	0.187800	0.239500	0.510100
O471	O47	0.213160	0.321000	0.637000
O481	O48	0.092500	0.242800	0.786300
O491	O49	0.151700	0.297300	0.932800
O501	O50	0.220380	0.590900	0.976600
O511	O51	0.166800	0.677600	0.843900
O521	O52	0.862960	0.198900	0.305300
O531	O53	0.933470	0.176000	0.259300
O541	O54	0.001080	0.342000	0.635900
Nd71	Nd7	0.689310	0.671290	0.378630
C911	C91	0.402100	0.777400	0.969700
C921	C92	0.416200	0.812400	0.904100
H371	H37	0.380700	0.837900	0.843700
C931	C93	0.482300	0.809600	0.927700
C941	C94	0.534300	0.772200	0.014600
H381	H38	0.579200	0.769400	0.029000
C951	C95	0.520700	0.738500	0.081400
C961	C96	0.454700	0.741800	0.059300
H391	H39	0.445600	0.719900	0.105200
C971	C97	0.454800	0.905300	0.799200
C981	C98	0.401400	0.889000	0.701200
C991	C99	0.359900	0.955100	0.640600
H401	H40	0.323000	0.943800	0.573800
C1001	C100	0.371600	0.037300	0.676700
C1011	C101	0.427200	0.052800	0.773700
H411	H41	0.436800	0.109200	0.798600
C1021	C102	0.468600	0.987400	0.834200
H421	H42	0.506600	0.999100	0.900100
C1031	C103	0.329400	0.779200	0.939200
C1041	C104	0.324400	0.107800	0.613100
C1051	C105	0.578200	0.701900	0.177400
N71	N7	0.384600	0.803800	0.658200
O551	O55	0.312200	0.739500	0.989900
O561	O56	0.286840	0.821000	0.863000
O571	O57	0.407500	0.742800	0.713700
O581	O58	0.348300	0.797300	0.567200
O591	O59	0.279620	0.090900	0.523400
O601	O60	0.333200	0.177600	0.656100
O611	O61	0.637040	0.698900	0.194700
O621	O62	0.566530	0.676000	0.240700
O631	O63	0.498920	0.842000	0.864100
Nd81	Nd8	0.189310	0.171290	0.378630
C1061	C106	0.902100	0.277400	0.969700
C1071	C107	0.916200	0.312400	0.904100
H431	H43	0.880700	0.337900	0.843700
C1081	C108	0.982300	0.309600	0.927700
C1091	C109	0.034300	0.272200	0.014600
H441	H44	0.079200	0.269400	0.029000
C1101	C110	0.020700	0.238500	0.081400
C1111	C111	0.954700	0.241800	0.059300
H451	H45	0.945600	0.219900	0.105200
C1121	C112	0.954800	0.405300	0.799200
C1131	C113	0.901400	0.389000	0.701200
C1141	C114	0.859900	0.455100	0.640600
H461	H46	0.823000	0.443800	0.573800
C1151	C115	0.871600	0.537300	0.676700
C1161	C116	0.927200	0.552800	0.773700
H471	H47	0.936800	0.609200	0.798600
C1171	C117	0.968600	0.487400	0.834200
H481	H48	0.006600	0.499100	0.900100
C1181	C118	0.829400	0.279200	0.939200
C1191	C119	0.824400	0.607800	0.613100
C1201	C120	0.078200	0.201900	0.177400
N81	N8	0.884600	0.303800	0.658200
O641	O64	0.812200	0.239500	0.989900
O651	O65	0.786840	0.321000	0.863000
O661	O66	0.907500	0.242800	0.713700
O671	O67	0.848300	0.297300	0.567200
O681	O68	0.779620	0.590900	0.523400
O691	O69	0.833200	0.677600	0.656100
O701	O70	0.137040	0.198900	0.194700
O711	O71	0.066530	0.176000	0.240700
O721	O72	0.998920	0.342000	0.864100
