data_ZAVQUK_clean_PM
_symmetry_space_group_name_H-M	'P1'
_cell_length_a	23.571000
_cell_length_b	15.673000
_cell_length_c	16.082000
_cell_angle_alpha	90.000000
_cell_angle_beta	124.154000
_cell_angle_gamma	90.000000
_symmetry_Int_Tables_number 1

loop_
_symmetry_equiv_pos_as_xyz
'x,y,z'

loop_
_atom_site_label
_atom_site_type_symbol
_atom_site_fract_x
_atom_site_fract_y
_atom_site_fract_z
Dy11	Dy1	0.810480	0.671980	0.623540
C11	C1	0.132800	0.039500	0.326500
C21	C2	0.143600	0.957300	0.362700
H11	H1	0.179900	0.946000	0.430400
C31	C3	0.102400	0.891100	0.302500
C41	C4	0.047900	0.906900	0.203400
C51	C5	0.034400	0.990000	0.167500
H21	H2	0.996000	0.001900	0.101600
C61	C6	0.077000	0.055400	0.227800
H31	H3	0.068300	0.111900	0.202100
C71	C7	0.019400	0.810200	0.073500
C81	C8	0.085000	0.810600	0.095700
H41	H4	0.121600	0.834800	0.156800
C91	C9	0.097200	0.775300	0.028000
C101	C10	0.043500	0.740600	0.937900
H51	H5	0.051400	0.718300	0.890300
C111	C11	0.977700	0.739200	0.918400
C121	C12	0.966200	0.773400	0.987400
H61	H6	0.921800	0.771200	0.975000
C131	C13	0.179700	0.110800	0.390700
C141	C14	0.169300	0.774200	0.055300
C151	C15	0.919000	0.703800	0.820100
N11	N1	0.117700	0.805400	0.344800
O11	O1	0.172500	0.179700	0.345600
O21	O2	0.222100	0.095800	0.482100
O31	O3	0.153300	0.799500	0.437000
O41	O4	0.094900	0.743700	0.288800
O51	O5	0.214300	0.812600	0.133000
O61	O6	0.182500	0.734200	0.999500
O71	O7	0.929500	0.679000	0.754700
O81	O8	0.860500	0.701000	0.804300
O91	O9	0.003500	0.843900	0.138700
Dy21	Dy2	0.310480	0.171980	0.623540
C161	C16	0.632800	0.539500	0.326500
C171	C17	0.643600	0.457300	0.362700
H71	H7	0.679900	0.446000	0.430400
C181	C18	0.602400	0.391100	0.302500
C191	C19	0.547900	0.406900	0.203400
C201	C20	0.534400	0.490000	0.167500
H81	H8	0.496000	0.501900	0.101600
C211	C21	0.577000	0.555400	0.227800
H91	H9	0.568300	0.611900	0.202100
C221	C22	0.519400	0.310200	0.073500
C231	C23	0.585000	0.310600	0.095700
H101	H10	0.621600	0.334800	0.156800
C241	C24	0.597200	0.275300	0.028000
C251	C25	0.543500	0.240600	0.937900
H111	H11	0.551400	0.218300	0.890300
C261	C26	0.477700	0.239200	0.918400
C271	C27	0.466200	0.273400	0.987400
H121	H12	0.421800	0.271200	0.975000
C281	C28	0.679700	0.610800	0.390700
C291	C29	0.669300	0.274200	0.055300
C301	C30	0.419000	0.203800	0.820100
N21	N2	0.617700	0.305400	0.344800
O101	O10	0.672500	0.679700	0.345600
O111	O11	0.722100	0.595800	0.482100
O121	O12	0.653300	0.299500	0.437000
O131	O13	0.594900	0.243700	0.288800
O141	O14	0.714300	0.312600	0.133000
O151	O15	0.682500	0.234200	0.999500
O161	O16	0.429500	0.179000	0.754700
O171	O17	0.360500	0.201000	0.804300
O181	O18	0.503500	0.343900	0.138700
Dy31	Dy3	0.189520	0.671980	0.876460
C311	C31	0.867200	0.039500	0.173500
C321	C32	0.856400	0.957300	0.137300
H131	H13	0.820100	0.946000	0.069600
C331	C33	0.897600	0.891100	0.197500
C341	C34	0.952100	0.906900	0.296600
C351	C35	0.965600	0.990000	0.332500
H141	H14	0.004000	0.001900	0.398400
C361	C36	0.923000	0.055400	0.272200
H151	H15	0.931700	0.111900	0.297900
C371	C37	0.980600	0.810200	0.426500
C381	C38	0.915000	0.810600	0.404300
H161	H16	0.878400	0.834800	0.343200
C391	C39	0.902800	0.775300	0.472000
C401	C40	0.956500	0.740600	0.562100
H171	H17	0.948600	0.718300	0.609700
C411	C41	0.022300	0.739200	0.581600
C421	C42	0.033800	0.773400	0.512600
H181	H18	0.078200	0.771200	0.525000
C431	C43	0.820300	0.110800	0.109300
C441	C44	0.830700	0.774200	0.444700
C451	C45	0.081000	0.703800	0.679900
N31	N3	0.882300	0.805400	0.155200
O191	O19	0.827500	0.179700	0.154400
O201	O20	0.777900	0.095800	0.017900
O211	O21	0.846700	0.799500	0.063000
O221	O22	0.905100	0.743700	0.211200
O231	O23	0.785700	0.812600	0.367000
O241	O24	0.817500	0.734200	0.500500
O251	O25	0.070500	0.679000	0.745300
O261	O26	0.139500	0.701000	0.695700
O271	O27	0.996500	0.843900	0.361300
Dy41	Dy4	0.689520	0.171980	0.876460
C461	C46	0.367200	0.539500	0.173500
C471	C47	0.356400	0.457300	0.137300
H191	H19	0.320100	0.446000	0.069600
C481	C48	0.397600	0.391100	0.197500
C491	C49	0.452100	0.406900	0.296600
C501	C50	0.465600	0.490000	0.332500
H201	H20	0.504000	0.501900	0.398400
C511	C51	0.423000	0.555400	0.272200
H211	H21	0.431700	0.611900	0.297900
C521	C52	0.480600	0.310200	0.426500
C531	C53	0.415000	0.310600	0.404300
H221	H22	0.378400	0.334800	0.343200
C541	C54	0.402800	0.275300	0.472000
C551	C55	0.456500	0.240600	0.562100
H231	H23	0.448600	0.218300	0.609700
C561	C56	0.522300	0.239200	0.581600
C571	C57	0.533800	0.273400	0.512600
H241	H24	0.578200	0.271200	0.525000
C581	C58	0.320300	0.610800	0.109300
C591	C59	0.330700	0.274200	0.444700
C601	C60	0.581000	0.203800	0.679900
N41	N4	0.382300	0.305400	0.155200
O281	O28	0.327500	0.679700	0.154400
O291	O29	0.277900	0.595800	0.017900
O301	O30	0.346700	0.299500	0.063000
O311	O31	0.405100	0.243700	0.211200
O321	O32	0.285700	0.312600	0.367000
O331	O33	0.317500	0.234200	0.500500
O341	O34	0.570500	0.179000	0.745300
O351	O35	0.639500	0.201000	0.695700
O361	O36	0.496500	0.343900	0.361300
Dy51	Dy5	0.189520	0.328020	0.376460
C611	C61	0.867200	0.960500	0.673500
C621	C62	0.856400	0.042700	0.637300
H251	H25	0.820100	0.054000	0.569600
C631	C63	0.897600	0.108900	0.697500
C641	C64	0.952100	0.093100	0.796600
C651	C65	0.965600	0.010000	0.832500
H261	H26	0.004000	0.998100	0.898400
C661	C66	0.923000	0.944600	0.772200
H271	H27	0.931700	0.888100	0.797900
C671	C67	0.980600	0.189800	0.926500
C681	C68	0.915000	0.189400	0.904300
H281	H28	0.878400	0.165200	0.843200
C691	C69	0.902800	0.224700	0.972000
C701	C70	0.956500	0.259400	0.062100
H291	H29	0.948600	0.281700	0.109700
C711	C71	0.022300	0.260800	0.081600
C721	C72	0.033800	0.226600	0.012600
H301	H30	0.078200	0.228800	0.025000
C731	C73	0.820300	0.889200	0.609300
C741	C74	0.830700	0.225800	0.944700
C751	C75	0.081000	0.296200	0.179900
N51	N5	0.882300	0.194600	0.655200
O371	O37	0.827500	0.820300	0.654400
O381	O38	0.777900	0.904200	0.517900
O391	O39	0.846700	0.200500	0.563000
O401	O40	0.905100	0.256300	0.711200
O411	O41	0.785700	0.187400	0.867000
O421	O42	0.817500	0.265800	0.000500
O431	O43	0.070500	0.321000	0.245300
O441	O44	0.139500	0.299000	0.195700
O451	O45	0.996500	0.156100	0.861300
Dy61	Dy6	0.689520	0.828020	0.376460
C761	C76	0.367200	0.460500	0.673500
C771	C77	0.356400	0.542700	0.637300
H311	H31	0.320100	0.554000	0.569600
C781	C78	0.397600	0.608900	0.697500
C791	C79	0.452100	0.593100	0.796600
C801	C80	0.465600	0.510000	0.832500
H321	H32	0.504000	0.498100	0.898400
C811	C81	0.423000	0.444600	0.772200
H331	H33	0.431700	0.388100	0.797900
C821	C82	0.480600	0.689800	0.926500
C831	C83	0.415000	0.689400	0.904300
H341	H34	0.378400	0.665200	0.843200
C841	C84	0.402800	0.724700	0.972000
C851	C85	0.456500	0.759400	0.062100
H351	H35	0.448600	0.781700	0.109700
C861	C86	0.522300	0.760800	0.081600
C871	C87	0.533800	0.726600	0.012600
H361	H36	0.578200	0.728800	0.025000
C881	C88	0.320300	0.389200	0.609300
C891	C89	0.330700	0.725800	0.944700
C901	C90	0.581000	0.796200	0.179900
N61	N6	0.382300	0.694600	0.655200
O461	O46	0.327500	0.320300	0.654400
O471	O47	0.277900	0.404200	0.517900
O481	O48	0.346700	0.700500	0.563000
O491	O49	0.405100	0.756300	0.711200
O501	O50	0.285700	0.687400	0.867000
O511	O51	0.317500	0.765800	0.000500
O521	O52	0.570500	0.821000	0.245300
O531	O53	0.639500	0.799000	0.195700
O541	O54	0.496500	0.656100	0.861300
Dy71	Dy7	0.810480	0.328020	0.123540
C911	C91	0.132800	0.960500	0.826500
C921	C92	0.143600	0.042700	0.862700
H371	H37	0.179900	0.054000	0.930400
C931	C93	0.102400	0.108900	0.802500
C941	C94	0.047900	0.093100	0.703400
C951	C95	0.034400	0.010000	0.667500
H381	H38	0.996000	0.998100	0.601600
C961	C96	0.077000	0.944600	0.727800
H391	H39	0.068300	0.888100	0.702100
C971	C97	0.019400	0.189800	0.573500
C981	C98	0.085000	0.189400	0.595700
H401	H40	0.121600	0.165200	0.656800
C991	C99	0.097200	0.224700	0.528000
C1001	C100	0.043500	0.259400	0.437900
H411	H41	0.051400	0.281700	0.390300
C1011	C101	0.977700	0.260800	0.418400
C1021	C102	0.966200	0.226600	0.487400
H421	H42	0.921800	0.228800	0.475000
C1031	C103	0.179700	0.889200	0.890700
C1041	C104	0.169300	0.225800	0.555300
C1051	C105	0.919000	0.296200	0.320100
N71	N7	0.117700	0.194600	0.844800
O551	O55	0.172500	0.820300	0.845600
O561	O56	0.222100	0.904200	0.982100
O571	O57	0.153300	0.200500	0.937000
O581	O58	0.094900	0.256300	0.788800
O591	O59	0.214300	0.187400	0.633000
O601	O60	0.182500	0.265800	0.499500
O611	O61	0.929500	0.321000	0.254700
O621	O62	0.860500	0.299000	0.304300
O631	O63	0.003500	0.156100	0.638700
Dy81	Dy8	0.310480	0.828020	0.123540
C1061	C106	0.632800	0.460500	0.826500
C1071	C107	0.643600	0.542700	0.862700
H431	H43	0.679900	0.554000	0.930400
C1081	C108	0.602400	0.608900	0.802500
C1091	C109	0.547900	0.593100	0.703400
C1101	C110	0.534400	0.510000	0.667500
H441	H44	0.496000	0.498100	0.601600
C1111	C111	0.577000	0.444600	0.727800
H451	H45	0.568300	0.388100	0.702100
C1121	C112	0.519400	0.689800	0.573500
C1131	C113	0.585000	0.689400	0.595700
H461	H46	0.621600	0.665200	0.656800
C1141	C114	0.597200	0.724700	0.528000
C1151	C115	0.543500	0.759400	0.437900
H471	H47	0.551400	0.781700	0.390300
C1161	C116	0.477700	0.760800	0.418400
C1171	C117	0.466200	0.726600	0.487400
H481	H48	0.421800	0.728800	0.475000
C1181	C118	0.679700	0.389200	0.890700
C1191	C119	0.669300	0.725800	0.555300
C1201	C120	0.419000	0.796200	0.320100
N81	N8	0.617700	0.694600	0.844800
O641	O64	0.672500	0.320300	0.845600
O651	O65	0.722100	0.404200	0.982100
O661	O66	0.653300	0.700500	0.937000
O671	O67	0.594900	0.756300	0.788800
O681	O68	0.714300	0.687400	0.633000
O691	O69	0.682500	0.765800	0.499500
O701	O70	0.429500	0.821000	0.254700
O711	O71	0.360500	0.799000	0.304300
O721	O72	0.503500	0.656100	0.638700
