data_ZAVQAQ_clean_PM
_symmetry_space_group_name_H-M	'P1'
_cell_length_a	23.610800
_cell_length_b	15.728800
_cell_length_c	16.161200
_cell_angle_alpha	90.000000
_cell_angle_beta	124.291000
_cell_angle_gamma	90.000000
_symmetry_Int_Tables_number 1

loop_
_symmetry_equiv_pos_as_xyz
'x,y,z'

loop_
_atom_site_label
_atom_site_type_symbol
_atom_site_fract_x
_atom_site_fract_y
_atom_site_fract_z
Sm11	Sm1	0.810460	0.828140	0.121690
C11	C1	0.098300	0.723400	0.530300
C21	C2	0.084400	0.688400	0.596400
H11	H1	0.120100	0.662600	0.656900
C31	C3	0.018700	0.691200	0.573500
C41	C4	0.965700	0.727700	0.485700
H21	H2	0.920800	0.729700	0.471300
C51	C5	0.979000	0.761600	0.418200
C61	C6	0.044900	0.758100	0.439500
H31	H3	0.053500	0.779200	0.392600
C71	C7	0.045600	0.595200	0.701800
C81	C8	0.099900	0.610200	0.800100
C91	C9	0.140900	0.544600	0.860400
H41	H4	0.177500	0.555800	0.927800
C101	C10	0.129300	0.462700	0.823900
C111	C11	0.073900	0.446800	0.726700
H51	H5	0.064600	0.390400	0.701500
C121	C12	0.032000	0.512700	0.666200
H61	H6	0.993900	0.501100	0.600000
C131	C13	0.170500	0.722300	0.559000
C141	C14	0.177100	0.390900	0.887700
C151	C15	0.920800	0.797700	0.321000
N11	N1	0.116100	0.695900	0.843300
O11	O1	0.186940	0.761500	0.507800
O21	O2	0.213580	0.681600	0.636400
O31	O3	0.093700	0.757200	0.787600
O41	O4	0.152400	0.702200	0.934400
O51	O5	0.220960	0.407700	0.978900
O61	O6	0.168290	0.322100	0.844200
O71	O7	0.862150	0.800500	0.304600
O81	O8	0.932350	0.822700	0.257500
O91	O9	0.002250	0.658400	0.636900
Sm21	Sm2	0.310460	0.328140	0.121690
C161	C16	0.598300	0.223400	0.530300
C171	C17	0.584400	0.188400	0.596400
H71	H7	0.620100	0.162600	0.656900
C181	C18	0.518700	0.191200	0.573500
C191	C19	0.465700	0.227700	0.485700
H81	H8	0.420800	0.229700	0.471300
C201	C20	0.479000	0.261600	0.418200
C211	C21	0.544900	0.258100	0.439500
H91	H9	0.553500	0.279200	0.392600
C221	C22	0.545600	0.095200	0.701800
C231	C23	0.599900	0.110200	0.800100
C241	C24	0.640900	0.044600	0.860400
H101	H10	0.677500	0.055800	0.927800
C251	C25	0.629300	0.962700	0.823900
C261	C26	0.573900	0.946800	0.726700
H111	H11	0.564600	0.890400	0.701500
C271	C27	0.532000	0.012700	0.666200
H121	H12	0.493900	0.001100	0.600000
C281	C28	0.670500	0.222300	0.559000
C291	C29	0.677100	0.890900	0.887700
C301	C30	0.420800	0.297700	0.321000
N21	N2	0.616100	0.195900	0.843300
O101	O10	0.686940	0.261500	0.507800
O111	O11	0.713580	0.181600	0.636400
O121	O12	0.593700	0.257200	0.787600
O131	O13	0.652400	0.202200	0.934400
O141	O14	0.720960	0.907700	0.978900
O151	O15	0.668290	0.822100	0.844200
O161	O16	0.362150	0.300500	0.304600
O171	O17	0.432350	0.322700	0.257500
O181	O18	0.502250	0.158400	0.636900
Sm31	Sm3	0.189540	0.828140	0.378310
C311	C31	0.901700	0.723400	0.969700
C321	C32	0.915600	0.688400	0.903600
H131	H13	0.879900	0.662600	0.843100
C331	C33	0.981300	0.691200	0.926500
C341	C34	0.034300	0.727700	0.014300
H141	H14	0.079200	0.729700	0.028700
C351	C35	0.021000	0.761600	0.081800
C361	C36	0.955100	0.758100	0.060500
H151	H15	0.946500	0.779200	0.107400
C371	C37	0.954400	0.595200	0.798200
C381	C38	0.900100	0.610200	0.699900
C391	C39	0.859100	0.544600	0.639600
H161	H16	0.822500	0.555800	0.572200
C401	C40	0.870700	0.462700	0.676100
C411	C41	0.926100	0.446800	0.773300
H171	H17	0.935400	0.390400	0.798500
C421	C42	0.968000	0.512700	0.833800
H181	H18	0.006100	0.501100	0.900000
C431	C43	0.829500	0.722300	0.941000
C441	C44	0.822900	0.390900	0.612300
C451	C45	0.079200	0.797700	0.179000
N31	N3	0.883900	0.695900	0.656700
O191	O19	0.813060	0.761500	0.992200
O201	O20	0.786420	0.681600	0.863600
O211	O21	0.906300	0.757200	0.712400
O221	O22	0.847600	0.702200	0.565600
O231	O23	0.779040	0.407700	0.521100
O241	O24	0.831710	0.322100	0.655800
O251	O25	0.137850	0.800500	0.195400
O261	O26	0.067650	0.822700	0.242500
O271	O27	0.997750	0.658400	0.863100
Sm41	Sm4	0.689540	0.328140	0.378310
C461	C46	0.401700	0.223400	0.969700
C471	C47	0.415600	0.188400	0.903600
H191	H19	0.379900	0.162600	0.843100
C481	C48	0.481300	0.191200	0.926500
C491	C49	0.534300	0.227700	0.014300
H201	H20	0.579200	0.229700	0.028700
C501	C50	0.521000	0.261600	0.081800
C511	C51	0.455100	0.258100	0.060500
H211	H21	0.446500	0.279200	0.107400
C521	C52	0.454400	0.095200	0.798200
C531	C53	0.400100	0.110200	0.699900
C541	C54	0.359100	0.044600	0.639600
H221	H22	0.322500	0.055800	0.572200
C551	C55	0.370700	0.962700	0.676100
C561	C56	0.426100	0.946800	0.773300
H231	H23	0.435400	0.890400	0.798500
C571	C57	0.468000	0.012700	0.833800
H241	H24	0.506100	0.001100	0.900000
C581	C58	0.329500	0.222300	0.941000
C591	C59	0.322900	0.890900	0.612300
C601	C60	0.579200	0.297700	0.179000
N41	N4	0.383900	0.195900	0.656700
O281	O28	0.313060	0.261500	0.992200
O291	O29	0.286420	0.181600	0.863600
O301	O30	0.406300	0.257200	0.712400
O311	O31	0.347600	0.202200	0.565600
O321	O32	0.279040	0.907700	0.521100
O331	O33	0.331710	0.822100	0.655800
O341	O34	0.637850	0.300500	0.195400
O351	O35	0.567650	0.322700	0.242500
O361	O36	0.497750	0.158400	0.863100
Sm51	Sm5	0.189540	0.171860	0.878310
C611	C61	0.901700	0.276600	0.469700
C621	C62	0.915600	0.311600	0.403600
H251	H25	0.879900	0.337400	0.343100
C631	C63	0.981300	0.308800	0.426500
C641	C64	0.034300	0.272300	0.514300
H261	H26	0.079200	0.270300	0.528700
C651	C65	0.021000	0.238400	0.581800
C661	C66	0.955100	0.241900	0.560500
H271	H27	0.946500	0.220800	0.607400
C671	C67	0.954400	0.404800	0.298200
C681	C68	0.900100	0.389800	0.199900
C691	C69	0.859100	0.455400	0.139600
H281	H28	0.822500	0.444200	0.072200
C701	C70	0.870700	0.537300	0.176100
C711	C71	0.926100	0.553200	0.273300
H291	H29	0.935400	0.609600	0.298500
C721	C72	0.968000	0.487300	0.333800
H301	H30	0.006100	0.498900	0.400000
C731	C73	0.829500	0.277700	0.441000
C741	C74	0.822900	0.609100	0.112300
C751	C75	0.079200	0.202300	0.679000
N51	N5	0.883900	0.304100	0.156700
O371	O37	0.813060	0.238500	0.492200
O381	O38	0.786420	0.318400	0.363600
O391	O39	0.906300	0.242800	0.212400
O401	O40	0.847600	0.297800	0.065600
O411	O41	0.779040	0.592300	0.021100
O421	O42	0.831710	0.677900	0.155800
O431	O43	0.137850	0.199500	0.695400
O441	O44	0.067650	0.177300	0.742500
O451	O45	0.997750	0.341600	0.363100
Sm61	Sm6	0.689540	0.671860	0.878310
C761	C76	0.401700	0.776600	0.469700
C771	C77	0.415600	0.811600	0.403600
H311	H31	0.379900	0.837400	0.343100
C781	C78	0.481300	0.808800	0.426500
C791	C79	0.534300	0.772300	0.514300
H321	H32	0.579200	0.770300	0.528700
C801	C80	0.521000	0.738400	0.581800
C811	C81	0.455100	0.741900	0.560500
H331	H33	0.446500	0.720800	0.607400
C821	C82	0.454400	0.904800	0.298200
C831	C83	0.400100	0.889800	0.199900
C841	C84	0.359100	0.955400	0.139600
H341	H34	0.322500	0.944200	0.072200
C851	C85	0.370700	0.037300	0.176100
C861	C86	0.426100	0.053200	0.273300
H351	H35	0.435400	0.109600	0.298500
C871	C87	0.468000	0.987300	0.333800
H361	H36	0.506100	0.998900	0.400000
C881	C88	0.329500	0.777700	0.441000
C891	C89	0.322900	0.109100	0.112300
C901	C90	0.579200	0.702300	0.679000
N61	N6	0.383900	0.804100	0.156700
O461	O46	0.313060	0.738500	0.492200
O471	O47	0.286420	0.818400	0.363600
O481	O48	0.406300	0.742800	0.212400
O491	O49	0.347600	0.797800	0.065600
O501	O50	0.279040	0.092300	0.021100
O511	O51	0.331710	0.177900	0.155800
O521	O52	0.637850	0.699500	0.695400
O531	O53	0.567650	0.677300	0.742500
O541	O54	0.497750	0.841600	0.363100
Sm71	Sm7	0.810460	0.171860	0.621690
C911	C91	0.098300	0.276600	0.030300
C921	C92	0.084400	0.311600	0.096400
H371	H37	0.120100	0.337400	0.156900
C931	C93	0.018700	0.308800	0.073500
C941	C94	0.965700	0.272300	0.985700
H381	H38	0.920800	0.270300	0.971300
C951	C95	0.979000	0.238400	0.918200
C961	C96	0.044900	0.241900	0.939500
H391	H39	0.053500	0.220800	0.892600
C971	C97	0.045600	0.404800	0.201800
C981	C98	0.099900	0.389800	0.300100
C991	C99	0.140900	0.455400	0.360400
H401	H40	0.177500	0.444200	0.427800
C1001	C100	0.129300	0.537300	0.323900
C1011	C101	0.073900	0.553200	0.226700
H411	H41	0.064600	0.609600	0.201500
C1021	C102	0.032000	0.487300	0.166200
H421	H42	0.993900	0.498900	0.100000
C1031	C103	0.170500	0.277700	0.059000
C1041	C104	0.177100	0.609100	0.387700
C1051	C105	0.920800	0.202300	0.821000
N71	N7	0.116100	0.304100	0.343300
O551	O55	0.186940	0.238500	0.007800
O561	O56	0.213580	0.318400	0.136400
O571	O57	0.093700	0.242800	0.287600
O581	O58	0.152400	0.297800	0.434400
O591	O59	0.220960	0.592300	0.478900
O601	O60	0.168290	0.677900	0.344200
O611	O61	0.862150	0.199500	0.804600
O621	O62	0.932350	0.177300	0.757500
O631	O63	0.002250	0.341600	0.136900
Sm81	Sm8	0.310460	0.671860	0.621690
C1061	C106	0.598300	0.776600	0.030300
C1071	C107	0.584400	0.811600	0.096400
H431	H43	0.620100	0.837400	0.156900
C1081	C108	0.518700	0.808800	0.073500
C1091	C109	0.465700	0.772300	0.985700
H441	H44	0.420800	0.770300	0.971300
C1101	C110	0.479000	0.738400	0.918200
C1111	C111	0.544900	0.741900	0.939500
H451	H45	0.553500	0.720800	0.892600
C1121	C112	0.545600	0.904800	0.201800
C1131	C113	0.599900	0.889800	0.300100
C1141	C114	0.640900	0.955400	0.360400
H461	H46	0.677500	0.944200	0.427800
C1151	C115	0.629300	0.037300	0.323900
C1161	C116	0.573900	0.053200	0.226700
H471	H47	0.564600	0.109600	0.201500
C1171	C117	0.532000	0.987300	0.166200
H481	H48	0.493900	0.998900	0.100000
C1181	C118	0.670500	0.777700	0.059000
C1191	C119	0.677100	0.109100	0.387700
C1201	C120	0.420800	0.702300	0.821000
N81	N8	0.616100	0.804100	0.343300
O641	O64	0.686940	0.738500	0.007800
O651	O65	0.713580	0.818400	0.136400
O661	O66	0.593700	0.742800	0.287600
O671	O67	0.652400	0.797800	0.434400
O681	O68	0.720960	0.092300	0.478900
O691	O69	0.668290	0.177900	0.344200
O701	O70	0.362150	0.699500	0.804600
O711	O71	0.432350	0.677300	0.757500
O721	O72	0.502250	0.841600	0.136900
