data_ZAVREV_clean_PM
_symmetry_space_group_name_H-M	'P1'
_cell_length_a	23.483000
_cell_length_b	15.623000
_cell_length_c	15.964000
_cell_angle_alpha	90.000000
_cell_angle_beta	124.008000
_cell_angle_gamma	90.000000
_symmetry_Int_Tables_number 1

loop_
_symmetry_equiv_pos_as_xyz
'x,y,z'

loop_
_atom_site_label
_atom_site_type_symbol
_atom_site_fract_x
_atom_site_fract_y
_atom_site_fract_z
Er11	Er1	0.810790	0.328040	0.625010
C11	C1	0.134100	0.958600	0.328300
C21	C2	0.144600	0.041900	0.364000
H11	H1	0.181200	0.053600	0.431800
C31	C3	0.103300	0.107900	0.303800
C41	C4	0.048800	0.091600	0.204100
C51	C5	0.036600	0.008200	0.169800
H21	H2	0.998400	0.996200	0.103300
C61	C6	0.078600	0.941900	0.229700
H31	H3	0.069700	0.885200	0.204000
C71	C7	0.019400	0.189600	0.074600
C81	C8	0.084700	0.189400	0.095600
H41	H4	0.121500	0.164600	0.156500
C91	C9	0.096600	0.225800	0.026900
C101	C10	0.042600	0.258900	0.937500
H51	H5	0.049900	0.280800	0.888800
C111	C11	0.977300	0.260100	0.918600
C121	C12	0.965300	0.225500	0.987200
H61	H6	0.920600	0.226400	0.974200
C131	C13	0.181700	0.887300	0.392000
C141	C14	0.168200	0.228500	0.052600
C151	C15	0.918400	0.295700	0.820800
N11	N1	0.118100	0.193000	0.345400
O11	O1	0.174600	0.818800	0.347000
O21	O2	0.223500	0.902500	0.484400
O31	O3	0.153600	0.199100	0.438400
O41	O4	0.095900	0.254300	0.290100
O51	O5	0.214800	0.190500	0.130500
O61	O6	0.179900	0.268100	0.995600
O71	O7	0.927800	0.320300	0.753700
O81	O8	0.859300	0.297600	0.804700
O91	O9	0.004300	0.154300	0.139800
Er21	Er2	0.310790	0.828040	0.625010
C161	C16	0.634100	0.458600	0.328300
C171	C17	0.644600	0.541900	0.364000
H71	H7	0.681200	0.553600	0.431800
C181	C18	0.603300	0.607900	0.303800
C191	C19	0.548800	0.591600	0.204100
C201	C20	0.536600	0.508200	0.169800
H81	H8	0.498400	0.496200	0.103300
C211	C21	0.578600	0.441900	0.229700
H91	H9	0.569700	0.385200	0.204000
C221	C22	0.519400	0.689600	0.074600
C231	C23	0.584700	0.689400	0.095600
H101	H10	0.621500	0.664600	0.156500
C241	C24	0.596600	0.725800	0.026900
C251	C25	0.542600	0.758900	0.937500
H111	H11	0.549900	0.780800	0.888800
C261	C26	0.477300	0.760100	0.918600
C271	C27	0.465300	0.725500	0.987200
H121	H12	0.420600	0.726400	0.974200
C281	C28	0.681700	0.387300	0.392000
C291	C29	0.668200	0.728500	0.052600
C301	C30	0.418400	0.795700	0.820800
N21	N2	0.618100	0.693000	0.345400
O101	O10	0.674600	0.318800	0.347000
O111	O11	0.723500	0.402500	0.484400
O121	O12	0.653600	0.699100	0.438400
O131	O13	0.595900	0.754300	0.290100
O141	O14	0.714800	0.690500	0.130500
O151	O15	0.679900	0.768100	0.995600
O161	O16	0.427800	0.820300	0.753700
O171	O17	0.359300	0.797600	0.804700
O181	O18	0.504300	0.654300	0.139800
Er31	Er3	0.189210	0.328040	0.874990
C311	C31	0.865900	0.958600	0.171700
C321	C32	0.855400	0.041900	0.136000
H131	H13	0.818800	0.053600	0.068200
C331	C33	0.896700	0.107900	0.196200
C341	C34	0.951200	0.091600	0.295900
C351	C35	0.963400	0.008200	0.330200
H141	H14	0.001600	0.996200	0.396700
C361	C36	0.921400	0.941900	0.270300
H151	H15	0.930300	0.885200	0.296000
C371	C37	0.980600	0.189600	0.425400
C381	C38	0.915300	0.189400	0.404400
H161	H16	0.878500	0.164600	0.343500
C391	C39	0.903400	0.225800	0.473100
C401	C40	0.957400	0.258900	0.562500
H171	H17	0.950100	0.280800	0.611200
C411	C41	0.022700	0.260100	0.581400
C421	C42	0.034700	0.225500	0.512800
H181	H18	0.079400	0.226400	0.525800
C431	C43	0.818300	0.887300	0.108000
C441	C44	0.831800	0.228500	0.447400
C451	C45	0.081600	0.295700	0.679200
N31	N3	0.881900	0.193000	0.154600
O191	O19	0.825400	0.818800	0.153000
O201	O20	0.776500	0.902500	0.015600
O211	O21	0.846400	0.199100	0.061600
O221	O22	0.904100	0.254300	0.209900
O231	O23	0.785200	0.190500	0.369500
O241	O24	0.820100	0.268100	0.504400
O251	O25	0.072200	0.320300	0.746300
O261	O26	0.140700	0.297600	0.695300
O271	O27	0.995700	0.154300	0.360200
Er41	Er4	0.689210	0.828040	0.874990
C461	C46	0.365900	0.458600	0.171700
C471	C47	0.355400	0.541900	0.136000
H191	H19	0.318800	0.553600	0.068200
C481	C48	0.396700	0.607900	0.196200
C491	C49	0.451200	0.591600	0.295900
C501	C50	0.463400	0.508200	0.330200
H201	H20	0.501600	0.496200	0.396700
C511	C51	0.421400	0.441900	0.270300
H211	H21	0.430300	0.385200	0.296000
C521	C52	0.480600	0.689600	0.425400
C531	C53	0.415300	0.689400	0.404400
H221	H22	0.378500	0.664600	0.343500
C541	C54	0.403400	0.725800	0.473100
C551	C55	0.457400	0.758900	0.562500
H231	H23	0.450100	0.780800	0.611200
C561	C56	0.522700	0.760100	0.581400
C571	C57	0.534700	0.725500	0.512800
H241	H24	0.579400	0.726400	0.525800
C581	C58	0.318300	0.387300	0.108000
C591	C59	0.331800	0.728500	0.447400
C601	C60	0.581600	0.795700	0.679200
N41	N4	0.381900	0.693000	0.154600
O281	O28	0.325400	0.318800	0.153000
O291	O29	0.276500	0.402500	0.015600
O301	O30	0.346400	0.699100	0.061600
O311	O31	0.404100	0.754300	0.209900
O321	O32	0.285200	0.690500	0.369500
O331	O33	0.320100	0.768100	0.504400
O341	O34	0.572200	0.820300	0.746300
O351	O35	0.640700	0.797600	0.695300
O361	O36	0.495700	0.654300	0.360200
Er51	Er5	0.189210	0.671960	0.374990
C611	C61	0.865900	0.041400	0.671700
C621	C62	0.855400	0.958100	0.636000
H251	H25	0.818800	0.946400	0.568200
C631	C63	0.896700	0.892100	0.696200
C641	C64	0.951200	0.908400	0.795900
C651	C65	0.963400	0.991800	0.830200
H261	H26	0.001600	0.003800	0.896700
C661	C66	0.921400	0.058100	0.770300
H271	H27	0.930300	0.114800	0.796000
C671	C67	0.980600	0.810400	0.925400
C681	C68	0.915300	0.810600	0.904400
H281	H28	0.878500	0.835400	0.843500
C691	C69	0.903400	0.774200	0.973100
C701	C70	0.957400	0.741100	0.062500
H291	H29	0.950100	0.719200	0.111200
C711	C71	0.022700	0.739900	0.081400
C721	C72	0.034700	0.774500	0.012800
H301	H30	0.079400	0.773600	0.025800
C731	C73	0.818300	0.112700	0.608000
C741	C74	0.831800	0.771500	0.947400
C751	C75	0.081600	0.704300	0.179200
N51	N5	0.881900	0.807000	0.654600
O371	O37	0.825400	0.181200	0.653000
O381	O38	0.776500	0.097500	0.515600
O391	O39	0.846400	0.800900	0.561600
O401	O40	0.904100	0.745700	0.709900
O411	O41	0.785200	0.809500	0.869500
O421	O42	0.820100	0.731900	0.004400
O431	O43	0.072200	0.679700	0.246300
O441	O44	0.140700	0.702400	0.195300
O451	O45	0.995700	0.845700	0.860200
Er61	Er6	0.689210	0.171960	0.374990
C761	C76	0.365900	0.541400	0.671700
C771	C77	0.355400	0.458100	0.636000
H311	H31	0.318800	0.446400	0.568200
C781	C78	0.396700	0.392100	0.696200
C791	C79	0.451200	0.408400	0.795900
C801	C80	0.463400	0.491800	0.830200
H321	H32	0.501600	0.503800	0.896700
C811	C81	0.421400	0.558100	0.770300
H331	H33	0.430300	0.614800	0.796000
C821	C82	0.480600	0.310400	0.925400
C831	C83	0.415300	0.310600	0.904400
H341	H34	0.378500	0.335400	0.843500
C841	C84	0.403400	0.274200	0.973100
C851	C85	0.457400	0.241100	0.062500
H351	H35	0.450100	0.219200	0.111200
C861	C86	0.522700	0.239900	0.081400
C871	C87	0.534700	0.274500	0.012800
H361	H36	0.579400	0.273600	0.025800
C881	C88	0.318300	0.612700	0.608000
C891	C89	0.331800	0.271500	0.947400
C901	C90	0.581600	0.204300	0.179200
N61	N6	0.381900	0.307000	0.654600
O461	O46	0.325400	0.681200	0.653000
O471	O47	0.276500	0.597500	0.515600
O481	O48	0.346400	0.300900	0.561600
O491	O49	0.404100	0.245700	0.709900
O501	O50	0.285200	0.309500	0.869500
O511	O51	0.320100	0.231900	0.004400
O521	O52	0.572200	0.179700	0.246300
O531	O53	0.640700	0.202400	0.195300
O541	O54	0.495700	0.345700	0.860200
Er71	Er7	0.810790	0.671960	0.125010
C911	C91	0.134100	0.041400	0.828300
C921	C92	0.144600	0.958100	0.864000
H371	H37	0.181200	0.946400	0.931800
C931	C93	0.103300	0.892100	0.803800
C941	C94	0.048800	0.908400	0.704100
C951	C95	0.036600	0.991800	0.669800
H381	H38	0.998400	0.003800	0.603300
C961	C96	0.078600	0.058100	0.729700
H391	H39	0.069700	0.114800	0.704000
C971	C97	0.019400	0.810400	0.574600
C981	C98	0.084700	0.810600	0.595600
H401	H40	0.121500	0.835400	0.656500
C991	C99	0.096600	0.774200	0.526900
C1001	C100	0.042600	0.741100	0.437500
H411	H41	0.049900	0.719200	0.388800
C1011	C101	0.977300	0.739900	0.418600
C1021	C102	0.965300	0.774500	0.487200
H421	H42	0.920600	0.773600	0.474200
C1031	C103	0.181700	0.112700	0.892000
C1041	C104	0.168200	0.771500	0.552600
C1051	C105	0.918400	0.704300	0.320800
N71	N7	0.118100	0.807000	0.845400
O551	O55	0.174600	0.181200	0.847000
O561	O56	0.223500	0.097500	0.984400
O571	O57	0.153600	0.800900	0.938400
O581	O58	0.095900	0.745700	0.790100
O591	O59	0.214800	0.809500	0.630500
O601	O60	0.179900	0.731900	0.495600
O611	O61	0.927800	0.679700	0.253700
O621	O62	0.859300	0.702400	0.304700
O631	O63	0.004300	0.845700	0.639800
Er81	Er8	0.310790	0.171960	0.125010
C1061	C106	0.634100	0.541400	0.828300
C1071	C107	0.644600	0.458100	0.864000
H431	H43	0.681200	0.446400	0.931800
C1081	C108	0.603300	0.392100	0.803800
C1091	C109	0.548800	0.408400	0.704100
C1101	C110	0.536600	0.491800	0.669800
H441	H44	0.498400	0.503800	0.603300
C1111	C111	0.578600	0.558100	0.729700
H451	H45	0.569700	0.614800	0.704000
C1121	C112	0.519400	0.310400	0.574600
C1131	C113	0.584700	0.310600	0.595600
H461	H46	0.621500	0.335400	0.656500
C1141	C114	0.596600	0.274200	0.526900
C1151	C115	0.542600	0.241100	0.437500
H471	H47	0.549900	0.219200	0.388800
C1161	C116	0.477300	0.239900	0.418600
C1171	C117	0.465300	0.274500	0.487200
H481	H48	0.420600	0.273600	0.474200
C1181	C118	0.681700	0.612700	0.892000
C1191	C119	0.668200	0.271500	0.552600
C1201	C120	0.418400	0.204300	0.320800
N81	N8	0.618100	0.307000	0.845400
O641	O64	0.674600	0.681200	0.847000
O651	O65	0.723500	0.597500	0.984400
O661	O66	0.653600	0.300900	0.938400
O671	O67	0.595900	0.245700	0.790100
O681	O68	0.714800	0.309500	0.630500
O691	O69	0.679900	0.231900	0.495600
O701	O70	0.427800	0.179700	0.253700
O711	O71	0.359300	0.202400	0.304700
O721	O72	0.504300	0.345700	0.639800
