data_ZAWLEQ_clean_PM
_symmetry_space_group_name_H-M	'P1'
_cell_length_a	7.582400
_cell_length_b	17.771300
_cell_length_c	6.417700
_cell_angle_alpha	90.000000
_cell_angle_beta	91.158500
_cell_angle_gamma	90.000000
_symmetry_Int_Tables_number 1

loop_
_symmetry_equiv_pos_as_xyz
'x,y,z'

loop_
_atom_site_label
_atom_site_type_symbol
_atom_site_fract_x
_atom_site_fract_y
_atom_site_fract_z
Cl11	Cl1	0.483800	0.616080	0.263700
Ca11	Ca1	0.500260	0.446240	0.240700
O11	O1	0.697100	0.504600	0.031900
C11	C1	0.738250	0.277710	0.306260
N11	N1	0.728290	0.240180	0.484680
O21	O2	0.704160	0.343390	0.272290
C21	C2	0.808830	0.226290	0.122000
N21	N2	0.835930	0.265100	0.952130
O31	O3	0.827660	0.159040	0.154900
Cl21	Cl2	0.016200	0.116080	0.736300
Ca21	Ca2	0.999740	0.946240	0.759300
O41	O4	0.802900	0.004600	0.968100
C31	C3	0.761750	0.777710	0.693740
N31	N3	0.771710	0.740180	0.515320
O51	O5	0.795840	0.843390	0.727710
C41	C4	0.691170	0.726290	0.878000
N41	N4	0.664070	0.765100	0.047870
O61	O6	0.672340	0.659040	0.845100
Cl31	Cl3	0.516200	0.383920	0.736300
Ca31	Ca3	0.499740	0.553760	0.759300
O71	O7	0.302900	0.495400	0.968100
C51	C5	0.261750	0.722290	0.693740
N51	N5	0.271710	0.759820	0.515320
O81	O8	0.295840	0.656610	0.727710
C61	C6	0.191170	0.773710	0.878000
N61	N6	0.164070	0.734900	0.047870
O91	O9	0.172340	0.840960	0.845100
Cl41	Cl4	0.983800	0.883920	0.263700
Ca41	Ca4	0.000260	0.053760	0.240700
O101	O10	0.197100	0.995400	0.031900
C71	C7	0.238250	0.222290	0.306260
N71	N7	0.228290	0.259820	0.484680
O111	O11	0.204160	0.156610	0.272290
C81	C8	0.308830	0.273710	0.122000
N81	N8	0.335930	0.234900	0.952130
O121	O12	0.327660	0.340960	0.154900
