data_ZAXQUM_charged_PM
_symmetry_space_group_name_H-M	'P1'
_cell_length_a	14.639000
_cell_length_b	14.639000
_cell_length_c	20.056000
_cell_angle_alpha	90.000000
_cell_angle_beta	90.000000
_cell_angle_gamma	90.000000
_symmetry_Int_Tables_number 1

loop_
_symmetry_equiv_pos_as_xyz
'x,y,z'

loop_
_atom_site_label
_atom_site_type_symbol
_atom_site_fract_x
_atom_site_fract_y
_atom_site_fract_z
Cu11	Cu1	0.500000	0.500000	0.000000
Cu21	Cu2	0.000000	0.000000	0.000000
Cu31	Cu3	0.000000	0.500000	0.500000
Cu41	Cu4	0.500000	0.000000	0.500000
Cu51	Cu5	0.750000	0.250000	0.750000
Cu61	Cu6	0.250000	0.750000	0.250000
Cu71	Cu7	0.250000	0.750000	0.750000
Cu81	Cu8	0.750000	0.250000	0.250000
H11	H1	0.557600	0.210600	0.210800
H21	H2	0.446800	0.257100	0.136900
H31	H3	0.696200	0.564300	0.027900
H41	H4	0.813400	0.526000	0.101700
H51	H5	0.795100	0.407100	0.175500
H61	H6	0.942400	0.289400	0.210800
H71	H7	0.053200	0.242900	0.136900
H81	H8	0.803800	0.935700	0.027900
H91	H9	0.686600	0.974000	0.101700
H101	H10	0.704900	0.092900	0.175500
H111	H11	0.289400	0.557600	0.710800
H121	H12	0.242900	0.446800	0.636900
H131	H13	0.935700	0.696200	0.527900
H141	H14	0.974000	0.813400	0.601700
H151	H15	0.092900	0.795100	0.675500
H161	H16	0.210600	0.942400	0.710800
H171	H17	0.257100	0.053200	0.636900
H181	H18	0.564300	0.803800	0.527900
H191	H19	0.526000	0.686600	0.601700
H201	H20	0.407100	0.704900	0.675500
H211	H21	0.442400	0.710600	0.289200
H221	H22	0.553200	0.757100	0.363100
H231	H23	0.303800	0.064300	0.472100
H241	H24	0.186600	0.026000	0.398300
H251	H25	0.204900	0.907100	0.324500
H261	H26	0.057600	0.789400	0.289200
H271	H27	0.946800	0.742900	0.363100
H281	H28	0.196200	0.435700	0.472100
H291	H29	0.313400	0.474000	0.398300
H301	H30	0.295100	0.592900	0.324500
H311	H31	0.710600	0.057600	0.789200
H321	H32	0.757100	0.946800	0.863100
H331	H33	0.064300	0.196200	0.972100
H341	H34	0.026000	0.313400	0.898300
H351	H35	0.907100	0.295100	0.824500
H361	H36	0.789400	0.442400	0.789200
H371	H37	0.742900	0.553200	0.863100
H381	H38	0.435700	0.303800	0.972100
H391	H39	0.474000	0.186600	0.898300
H401	H40	0.592900	0.204900	0.824500
H411	H41	0.442400	0.789400	0.789200
H421	H42	0.553200	0.742900	0.863100
H431	H43	0.303800	0.435700	0.972100
H441	H44	0.186600	0.474000	0.898300
H451	H45	0.204900	0.592900	0.824500
H461	H46	0.057600	0.710600	0.789200
H471	H47	0.946800	0.757100	0.863100
H481	H48	0.196200	0.064300	0.972100
H491	H49	0.313400	0.026000	0.898300
H501	H50	0.295100	0.907100	0.824500
H511	H51	0.710600	0.442400	0.289200
H521	H52	0.757100	0.553200	0.363100
H531	H53	0.064300	0.303800	0.472100
H541	H54	0.026000	0.186600	0.398300
H551	H55	0.907100	0.204900	0.324500
H561	H56	0.789400	0.057600	0.289200
H571	H57	0.742900	0.946800	0.363100
H581	H58	0.435700	0.196200	0.472100
H591	H59	0.474000	0.313400	0.398300
H601	H60	0.592900	0.295100	0.324500
H611	H61	0.557600	0.289400	0.710800
H621	H62	0.446800	0.242900	0.636900
H631	H63	0.696200	0.935700	0.527900
H641	H64	0.813400	0.974000	0.601700
H651	H65	0.795100	0.092900	0.675500
H661	H66	0.942400	0.210600	0.710800
H671	H67	0.053200	0.257100	0.636900
H681	H68	0.803800	0.564300	0.527900
H691	H69	0.686600	0.526000	0.601700
H701	H70	0.704900	0.407100	0.675500
H711	H71	0.289400	0.942400	0.210800
H721	H72	0.242900	0.053200	0.136900
H731	H73	0.935700	0.803800	0.027900
H741	H74	0.974000	0.686600	0.101700
H751	H75	0.092900	0.704900	0.175500
H761	H76	0.210600	0.557600	0.210800
H771	H77	0.257100	0.446800	0.136900
H781	H78	0.564300	0.696200	0.027900
H791	H79	0.526000	0.813400	0.101700
H801	H80	0.407100	0.795100	0.175500
C11	C1	0.570200	0.261100	0.182500
C21	C2	0.503100	0.289400	0.137900
C31	C3	0.687000	0.515700	0.058500
C41	C4	0.757800	0.492500	0.102400
C51	C5	0.747300	0.422700	0.145500
C61	C6	0.665500	0.373800	0.145700
C71	C7	0.596400	0.401600	0.101000
C81	C8	0.929800	0.238900	0.182500
C91	C9	0.996900	0.210600	0.137900
C101	C10	0.813000	0.984300	0.058500
C111	C11	0.742200	0.007500	0.102400
C121	C12	0.752700	0.077300	0.145500
C131	C13	0.834500	0.126200	0.145700
C141	C14	0.903600	0.098400	0.101000
C151	C15	0.238900	0.570200	0.682500
C161	C16	0.210600	0.503100	0.637900
C171	C17	0.984300	0.687000	0.558500
C181	C18	0.007500	0.757800	0.602400
C191	C19	0.077300	0.747300	0.645500
C201	C20	0.126200	0.665500	0.645700
C211	C21	0.098400	0.596400	0.601000
C221	C22	0.261100	0.929800	0.682500
C231	C23	0.289400	0.996900	0.637900
C241	C24	0.515700	0.813000	0.558500
C251	C25	0.492500	0.742200	0.602400
C261	C26	0.422700	0.752700	0.645500
C271	C27	0.373800	0.834500	0.645700
C281	C28	0.401600	0.903600	0.601000
C291	C29	0.429800	0.761100	0.317500
C301	C30	0.496900	0.789400	0.362100
C311	C31	0.313000	0.015700	0.441500
C321	C32	0.242200	0.992500	0.397600
C331	C33	0.252700	0.922700	0.354500
C341	C34	0.334500	0.873800	0.354300
C351	C35	0.403600	0.901600	0.399000
C361	C36	0.070200	0.738900	0.317500
C371	C37	0.003100	0.710600	0.362100
C381	C38	0.187000	0.484300	0.441500
C391	C39	0.257800	0.507500	0.397600
C401	C40	0.247300	0.577300	0.354500
C411	C41	0.165500	0.626200	0.354300
C421	C42	0.096400	0.598400	0.399000
C431	C43	0.761100	0.070200	0.817500
C441	C44	0.789400	0.003100	0.862100
C451	C45	0.015700	0.187000	0.941500
C461	C46	0.992500	0.257800	0.897600
C471	C47	0.922700	0.247300	0.854500
C481	C48	0.873800	0.165500	0.854300
C491	C49	0.901600	0.096400	0.899000
C501	C50	0.738900	0.429800	0.817500
C511	C51	0.710600	0.496900	0.862100
C521	C52	0.484300	0.313000	0.941500
C531	C53	0.507500	0.242200	0.897600
C541	C54	0.577300	0.252700	0.854500
C551	C55	0.626200	0.334500	0.854300
C561	C56	0.598400	0.403600	0.899000
C571	C57	0.429800	0.738900	0.817500
C581	C58	0.496900	0.710600	0.862100
C591	C59	0.313000	0.484300	0.941500
C601	C60	0.242200	0.507500	0.897600
C611	C61	0.252700	0.577300	0.854500
C621	C62	0.334500	0.626200	0.854300
C631	C63	0.403600	0.598400	0.899000
C641	C64	0.070200	0.761100	0.817500
C651	C65	0.003100	0.789400	0.862100
C661	C66	0.187000	0.015700	0.941500
C671	C67	0.257800	0.992500	0.897600
C681	C68	0.247300	0.922700	0.854500
C691	C69	0.165500	0.873800	0.854300
C701	C70	0.096400	0.901600	0.899000
C711	C71	0.761100	0.429800	0.317500
C721	C72	0.789400	0.496900	0.362100
C731	C73	0.015700	0.313000	0.441500
C741	C74	0.992500	0.242200	0.397600
C751	C75	0.922700	0.252700	0.354500
C761	C76	0.873800	0.334500	0.354300
C771	C77	0.901600	0.403600	0.399000
C781	C78	0.738900	0.070200	0.317500
C791	C79	0.710600	0.003100	0.362100
C801	C80	0.484300	0.187000	0.441500
C811	C81	0.507500	0.257800	0.397600
C821	C82	0.577300	0.247300	0.354500
C831	C83	0.626200	0.165500	0.354300
C841	C84	0.598400	0.096400	0.399000
C851	C85	0.570200	0.238900	0.682500
C861	C86	0.503100	0.210600	0.637900
C871	C87	0.687000	0.984300	0.558500
C881	C88	0.757800	0.007500	0.602400
C891	C89	0.747300	0.077300	0.645500
C901	C90	0.665500	0.126200	0.645700
C911	C91	0.596400	0.098400	0.601000
C921	C92	0.929800	0.261100	0.682500
C931	C93	0.996900	0.289400	0.637900
C941	C94	0.813000	0.515700	0.558500
C951	C95	0.742200	0.492500	0.602400
C961	C96	0.752700	0.422700	0.645500
C971	C97	0.834500	0.373800	0.645700
C981	C98	0.903600	0.401600	0.601000
C991	C99	0.238900	0.929800	0.182500
C1001	C100	0.210600	0.996900	0.137900
C1011	C101	0.984300	0.813000	0.058500
C1021	C102	0.007500	0.742200	0.102400
C1031	C103	0.077300	0.752700	0.145500
C1041	C104	0.126200	0.834500	0.145700
C1051	C105	0.098400	0.903600	0.101000
C1061	C106	0.261100	0.570200	0.182500
C1071	C107	0.289400	0.503100	0.137900
C1081	C108	0.515700	0.687000	0.058500
C1091	C109	0.492500	0.757800	0.102400
C1101	C110	0.422700	0.747300	0.145500
C1111	C111	0.373800	0.665500	0.145700
C1121	C112	0.401600	0.596400	0.101000
N11	N1	0.650900	0.301600	0.187100
N21	N2	0.514200	0.359600	0.096800
N31	N3	0.608100	0.472500	0.058200
N41	N4	0.849100	0.198400	0.187100
N51	N5	0.985800	0.140400	0.096800
N61	N6	0.891900	0.027500	0.058200
N71	N7	0.198400	0.650900	0.687100
N81	N8	0.140400	0.514200	0.596800
N91	N9	0.027500	0.608100	0.558200
N101	N10	0.301600	0.849100	0.687100
N111	N11	0.359600	0.985800	0.596800
N121	N12	0.472500	0.891900	0.558200
N131	N13	0.349100	0.801600	0.312900
N141	N14	0.485800	0.859600	0.403200
N151	N15	0.391900	0.972500	0.441800
N161	N16	0.150900	0.698400	0.312900
N171	N17	0.014200	0.640400	0.403200
N181	N18	0.108100	0.527500	0.441800
N191	N19	0.801600	0.150900	0.812900
N201	N20	0.859600	0.014200	0.903200
N211	N21	0.972500	0.108100	0.941800
N221	N22	0.698400	0.349100	0.812900
N231	N23	0.640400	0.485800	0.903200
N241	N24	0.527500	0.391900	0.941800
N251	N25	0.349100	0.698400	0.812900
N261	N26	0.485800	0.640400	0.903200
N271	N27	0.391900	0.527500	0.941800
N281	N28	0.150900	0.801600	0.812900
N291	N29	0.014200	0.859600	0.903200
N301	N30	0.108100	0.972500	0.941800
N311	N31	0.801600	0.349100	0.312900
N321	N32	0.859600	0.485800	0.403200
N331	N33	0.972500	0.391900	0.441800
N341	N34	0.698400	0.150900	0.312900
N351	N35	0.640400	0.014200	0.403200
N361	N36	0.527500	0.108100	0.441800
N371	N37	0.650900	0.198400	0.687100
N381	N38	0.514200	0.140400	0.596800
N391	N39	0.608100	0.027500	0.558200
N401	N40	0.849100	0.301600	0.687100
N411	N41	0.985800	0.359600	0.596800
N421	N42	0.891900	0.472500	0.558200
N431	N43	0.198400	0.849100	0.187100
N441	N44	0.140400	0.985800	0.096800
N451	N45	0.027500	0.891900	0.058200
N461	N46	0.301600	0.650900	0.187100
N471	N47	0.359600	0.514200	0.096800
N481	N48	0.472500	0.608100	0.058200
B11	B1	0.750000	0.250000	0.000000
F11	F1	0.728200	0.177700	0.955700
F21	F2	0.771800	0.322300	0.955700
F31	F3	0.677700	0.228200	0.044300
F41	F4	0.822300	0.271800	0.044300
B21	B2	0.250000	0.750000	0.500000
F51	F5	0.322300	0.728200	0.455700
F61	F6	0.177700	0.771800	0.455700
F71	F7	0.271800	0.677700	0.544300
F81	F8	0.228200	0.822300	0.544300
B31	B3	0.250000	0.750000	0.000000
F91	F9	0.271800	0.822300	0.044300
F101	F10	0.228200	0.677700	0.044300
F111	F11	0.322300	0.771800	0.955700
F121	F12	0.177700	0.728200	0.955700
B41	B4	0.750000	0.250000	0.500000
F131	F13	0.677700	0.271800	0.544300
F141	F14	0.822300	0.228200	0.544300
F151	F15	0.728200	0.322300	0.455700
F161	F16	0.771800	0.177700	0.455700
B51	B5	0.522300	0.522300	0.273800
F171	F17	0.434700	0.544300	0.269500
F181	F18	0.544300	0.434700	0.269500
F191	F19	0.573500	0.573500	0.317800
F201	F20	0.552500	0.552500	0.211400
B61	B6	0.977700	0.977700	0.273800
F211	F21	0.065300	0.955700	0.269500
F221	F22	0.955700	0.065300	0.269500
F231	F23	0.926500	0.926500	0.317800
F241	F24	0.947500	0.947500	0.211400
B71	B7	0.977700	0.522300	0.773800
F251	F25	0.955700	0.434700	0.769500
F261	F26	0.065300	0.544300	0.769500
F271	F27	0.926500	0.573500	0.817800
F281	F28	0.947500	0.552500	0.711400
B81	B8	0.522300	0.977700	0.773800
F291	F29	0.544300	0.065300	0.769500
F301	F30	0.434700	0.955700	0.769500
F311	F31	0.573500	0.926500	0.817800
F321	F32	0.552500	0.947500	0.711400
B91	B9	0.477700	0.022300	0.226200
F331	F33	0.565300	0.044300	0.230500
F341	F34	0.455700	0.934700	0.230500
F351	F35	0.426500	0.073500	0.182200
F361	F36	0.447500	0.052500	0.288600
B101	B10	0.022300	0.477700	0.226200
F371	F37	0.934700	0.455700	0.230500
F381	F38	0.044300	0.565300	0.230500
F391	F39	0.073500	0.426500	0.182200
F401	F40	0.052500	0.447500	0.288600
B111	B11	0.022300	0.022300	0.726200
F411	F41	0.044300	0.934700	0.730500
F421	F42	0.934700	0.044300	0.730500
F431	F43	0.073500	0.073500	0.682200
F441	F44	0.052500	0.052500	0.788600
B121	B12	0.477700	0.477700	0.726200
F451	F45	0.455700	0.565300	0.730500
F461	F46	0.565300	0.455700	0.730500
F471	F47	0.426500	0.426500	0.682200
F481	F48	0.447500	0.447500	0.788600
