data_ZAXQOG_clean_PM
_symmetry_space_group_name_H-M	'P1'
_cell_length_a	14.537000
_cell_length_b	14.537000
_cell_length_c	20.195000
_cell_angle_alpha	90.000000
_cell_angle_beta	90.000000
_cell_angle_gamma	90.000000
_symmetry_Int_Tables_number 1

loop_
_symmetry_equiv_pos_as_xyz
'x,y,z'

loop_
_atom_site_label
_atom_site_type_symbol
_atom_site_fract_x
_atom_site_fract_y
_atom_site_fract_z
N11	N1	0.300200	0.650300	0.187400
C11	C1	0.259700	0.569700	0.181800
H11	H1	0.208600	0.556700	0.209600
C21	C2	0.288700	0.501200	0.136200
H21	H2	0.256700	0.444200	0.134900
N21	N2	0.358400	0.514000	0.095600
N31	N3	0.472100	0.609600	0.057800
C31	C3	0.517100	0.688900	0.058700
H31	H3	0.566400	0.698000	0.028500
C41	C4	0.494200	0.759700	0.102800
H41	H4	0.528900	0.815000	0.103200
C51	C5	0.422100	0.749000	0.145200
H51	H5	0.404900	0.797300	0.174300
C61	C6	0.373900	0.666000	0.145100
C71	C7	0.400500	0.596400	0.100400
N41	N4	0.199800	0.849700	0.187400
C81	C8	0.240300	0.930300	0.181800
H61	H6	0.291400	0.943300	0.209600
C91	C9	0.211300	0.998800	0.136200
H71	H7	0.243300	0.055800	0.134900
N51	N5	0.141600	0.986000	0.095600
N61	N6	0.027900	0.890400	0.057800
C101	C10	0.982900	0.811100	0.058700
H81	H8	0.933600	0.802000	0.028500
C111	C11	0.005800	0.740300	0.102800
H91	H9	0.971100	0.685000	0.103200
C121	C12	0.077900	0.751000	0.145200
H101	H10	0.095100	0.702700	0.174300
C131	C13	0.126100	0.834000	0.145100
C141	C14	0.099500	0.903600	0.100400
N71	N7	0.849700	0.300200	0.687400
C151	C15	0.930300	0.259700	0.681800
H111	H11	0.943300	0.208600	0.709600
C161	C16	0.998800	0.288700	0.636200
H121	H12	0.055800	0.256700	0.634900
N81	N8	0.986000	0.358400	0.595600
N91	N9	0.890400	0.472100	0.557800
C171	C17	0.811100	0.517100	0.558700
H131	H13	0.802000	0.566400	0.528500
C181	C18	0.740300	0.494200	0.602800
H141	H14	0.685000	0.528900	0.603200
C191	C19	0.751000	0.422100	0.645200
H151	H15	0.702700	0.404900	0.674300
C201	C20	0.834000	0.373900	0.645100
C211	C21	0.903600	0.400500	0.600400
N101	N10	0.650300	0.199800	0.687400
C221	C22	0.569700	0.240300	0.681800
H161	H16	0.556700	0.291400	0.709600
C231	C23	0.501200	0.211300	0.636200
H171	H17	0.444200	0.243300	0.634900
N111	N11	0.514000	0.141600	0.595600
N121	N12	0.609600	0.027900	0.557800
C241	C24	0.688900	0.982900	0.558700
H181	H18	0.698000	0.933600	0.528500
C251	C25	0.759700	0.005800	0.602800
H191	H19	0.815000	0.971100	0.603200
C261	C26	0.749000	0.077900	0.645200
H201	H20	0.797300	0.095100	0.674300
C271	C27	0.666000	0.126100	0.645100
C281	C28	0.596400	0.099500	0.600400
N131	N13	0.699800	0.150300	0.312600
C291	C29	0.740300	0.069700	0.318200
H211	H21	0.791400	0.056700	0.290400
C301	C30	0.711300	0.001200	0.363800
H221	H22	0.743300	0.944200	0.365100
N141	N14	0.641600	0.014000	0.404400
N151	N15	0.527900	0.109600	0.442200
C311	C31	0.482900	0.188900	0.441300
H231	H23	0.433600	0.198000	0.471500
C321	C32	0.505800	0.259700	0.397200
H241	H24	0.471100	0.315000	0.396800
C331	C33	0.577900	0.249000	0.354800
H251	H25	0.595100	0.297300	0.325700
C341	C34	0.626100	0.166000	0.354900
C351	C35	0.599500	0.096400	0.399600
N161	N16	0.800200	0.349700	0.312600
C361	C36	0.759700	0.430300	0.318200
H261	H26	0.708600	0.443300	0.290400
C371	C37	0.788700	0.498800	0.363800
H271	H27	0.756700	0.555800	0.365100
N171	N17	0.858400	0.486000	0.404400
N181	N18	0.972100	0.390400	0.442200
C381	C38	0.017100	0.311100	0.441300
H281	H28	0.066400	0.302000	0.471500
C391	C39	0.994200	0.240300	0.397200
H291	H29	0.028900	0.185000	0.396800
C401	C40	0.922100	0.251000	0.354800
H301	H30	0.904900	0.202700	0.325700
C411	C41	0.873900	0.334000	0.354900
C421	C42	0.900500	0.403600	0.399600
N191	N19	0.150300	0.800200	0.812600
C431	C43	0.069700	0.759700	0.818200
H311	H31	0.056700	0.708600	0.790400
C441	C44	0.001200	0.788700	0.863800
H321	H32	0.944200	0.756700	0.865100
N201	N20	0.014000	0.858400	0.904400
N211	N21	0.109600	0.972100	0.942200
C451	C45	0.188900	0.017100	0.941300
H331	H33	0.198000	0.066400	0.971500
C461	C46	0.259700	0.994200	0.897200
H341	H34	0.315000	0.028900	0.896800
C471	C47	0.249000	0.922100	0.854800
H351	H35	0.297300	0.904900	0.825700
C481	C48	0.166000	0.873900	0.854900
C491	C49	0.096400	0.900500	0.899600
N221	N22	0.349700	0.699800	0.812600
C501	C50	0.430300	0.740300	0.818200
H361	H36	0.443300	0.791400	0.790400
C511	C51	0.498800	0.711300	0.863800
H371	H37	0.555800	0.743300	0.865100
N231	N23	0.486000	0.641600	0.904400
N241	N24	0.390400	0.527900	0.942200
C521	C52	0.311100	0.482900	0.941300
H381	H38	0.302000	0.433600	0.971500
C531	C53	0.240300	0.505800	0.897200
H391	H39	0.185000	0.471100	0.896800
C541	C54	0.251000	0.577900	0.854800
H401	H40	0.202700	0.595100	0.825700
C551	C55	0.334000	0.626100	0.854900
C561	C56	0.403600	0.599500	0.899600
N251	N25	0.699800	0.349700	0.812600
C571	C57	0.740300	0.430300	0.818200
H411	H41	0.791400	0.443300	0.790400
C581	C58	0.711300	0.498800	0.863800
H421	H42	0.743300	0.555800	0.865100
N261	N26	0.641600	0.486000	0.904400
N271	N27	0.527900	0.390400	0.942200
C591	C59	0.482900	0.311100	0.941300
H431	H43	0.433600	0.302000	0.971500
C601	C60	0.505800	0.240300	0.897200
H441	H44	0.471100	0.185000	0.896800
C611	C61	0.577900	0.251000	0.854800
H451	H45	0.595100	0.202700	0.825700
C621	C62	0.626100	0.334000	0.854900
C631	C63	0.599500	0.403600	0.899600
N281	N28	0.800200	0.150300	0.812600
C641	C64	0.759700	0.069700	0.818200
H461	H46	0.708600	0.056700	0.790400
C651	C65	0.788700	0.001200	0.863800
H471	H47	0.756700	0.944200	0.865100
N291	N29	0.858400	0.014000	0.904400
N301	N30	0.972100	0.109600	0.942200
C661	C66	0.017100	0.188900	0.941300
H481	H48	0.066400	0.198000	0.971500
C671	C67	0.994200	0.259700	0.897200
H491	H49	0.028900	0.315000	0.896800
C681	C68	0.922100	0.249000	0.854800
H501	H50	0.904900	0.297300	0.825700
C691	C69	0.873900	0.166000	0.854900
C701	C70	0.900500	0.096400	0.899600
N311	N31	0.150300	0.699800	0.312600
C711	C71	0.069700	0.740300	0.318200
H511	H51	0.056700	0.791400	0.290400
C721	C72	0.001200	0.711300	0.363800
H521	H52	0.944200	0.743300	0.365100
N321	N32	0.014000	0.641600	0.404400
N331	N33	0.109600	0.527900	0.442200
C731	C73	0.188900	0.482900	0.441300
H531	H53	0.198000	0.433600	0.471500
C741	C74	0.259700	0.505800	0.397200
H541	H54	0.315000	0.471100	0.396800
C751	C75	0.249000	0.577900	0.354800
H551	H55	0.297300	0.595100	0.325700
C761	C76	0.166000	0.626100	0.354900
C771	C77	0.096400	0.599500	0.399600
N341	N34	0.349700	0.800200	0.312600
C781	C78	0.430300	0.759700	0.318200
H561	H56	0.443300	0.708600	0.290400
C791	C79	0.498800	0.788700	0.363800
H571	H57	0.555800	0.756700	0.365100
N351	N35	0.486000	0.858400	0.404400
N361	N36	0.390400	0.972100	0.442200
C801	C80	0.311100	0.017100	0.441300
H581	H58	0.302000	0.066400	0.471500
C811	C81	0.240300	0.994200	0.397200
H591	H59	0.185000	0.028900	0.396800
C821	C82	0.251000	0.922100	0.354800
H601	H60	0.202700	0.904900	0.325700
C831	C83	0.334000	0.873900	0.354900
C841	C84	0.403600	0.900500	0.399600
N371	N37	0.300200	0.849700	0.687400
C851	C85	0.259700	0.930300	0.681800
H611	H61	0.208600	0.943300	0.709600
C861	C86	0.288700	0.998800	0.636200
H621	H62	0.256700	0.055800	0.634900
N381	N38	0.358400	0.986000	0.595600
N391	N39	0.472100	0.890400	0.557800
C871	C87	0.517100	0.811100	0.558700
H631	H63	0.566400	0.802000	0.528500
C881	C88	0.494200	0.740300	0.602800
H641	H64	0.528900	0.685000	0.603200
C891	C89	0.422100	0.751000	0.645200
H651	H65	0.404900	0.702700	0.674300
C901	C90	0.373900	0.834000	0.645100
C911	C91	0.400500	0.903600	0.600400
N401	N40	0.199800	0.650300	0.687400
C921	C92	0.240300	0.569700	0.681800
H661	H66	0.291400	0.556700	0.709600
C931	C93	0.211300	0.501200	0.636200
H671	H67	0.243300	0.444200	0.634900
N411	N41	0.141600	0.514000	0.595600
N421	N42	0.027900	0.609600	0.557800
C941	C94	0.982900	0.688900	0.558700
H681	H68	0.933600	0.698000	0.528500
C951	C95	0.005800	0.759700	0.602800
H691	H69	0.971100	0.815000	0.603200
C961	C96	0.077900	0.749000	0.645200
H701	H70	0.095100	0.797300	0.674300
C971	C97	0.126100	0.666000	0.645100
C981	C98	0.099500	0.596400	0.600400
N431	N43	0.849700	0.199800	0.187400
C991	C99	0.930300	0.240300	0.181800
H711	H71	0.943300	0.291400	0.209600
C1001	C100	0.998800	0.211300	0.136200
H721	H72	0.055800	0.243300	0.134900
N441	N44	0.986000	0.141600	0.095600
N451	N45	0.890400	0.027900	0.057800
C1011	C101	0.811100	0.982900	0.058700
H731	H73	0.802000	0.933600	0.028500
C1021	C102	0.740300	0.005800	0.102800
H741	H74	0.685000	0.971100	0.103200
C1031	C103	0.751000	0.077900	0.145200
H751	H75	0.702700	0.095100	0.174300
C1041	C104	0.834000	0.126100	0.145100
C1051	C105	0.903600	0.099500	0.100400
N461	N46	0.650300	0.300200	0.187400
C1061	C106	0.569700	0.259700	0.181800
H761	H76	0.556700	0.208600	0.209600
C1071	C107	0.501200	0.288700	0.136200
H771	H77	0.444200	0.256700	0.134900
N471	N47	0.514000	0.358400	0.095600
N481	N48	0.609600	0.472100	0.057800
C1081	C108	0.688900	0.517100	0.058700
H781	H78	0.698000	0.566400	0.028500
C1091	C109	0.759700	0.494200	0.102800
H791	H79	0.815000	0.528900	0.103200
C1101	C110	0.749000	0.422100	0.145200
H801	H80	0.797300	0.404900	0.174300
C1111	C111	0.666000	0.373900	0.145100
C1121	C112	0.596400	0.400500	0.100400
Cu11	Cu1	0.500000	0.500000	0.000000
Cu21	Cu2	0.000000	0.000000	0.000000
Cu31	Cu3	0.000000	0.500000	0.500000
Cu41	Cu4	0.500000	0.000000	0.500000
Cu51	Cu5	0.250000	0.750000	0.250000
Cu61	Cu6	0.750000	0.250000	0.750000
Cu71	Cu7	0.750000	0.250000	0.250000
Cu81	Cu8	0.250000	0.750000	0.750000
