data_ZAXWEC_clean_PM
_symmetry_space_group_name_H-M	'P1'
_cell_length_a	7.683500
_cell_length_b	8.680500
_cell_length_c	12.354000
_cell_angle_alpha	90.000000
_cell_angle_beta	90.000000
_cell_angle_gamma	90.000000
_symmetry_Int_Tables_number 1

loop_
_symmetry_equiv_pos_as_xyz
'x,y,z'

loop_
_atom_site_label
_atom_site_type_symbol
_atom_site_fract_x
_atom_site_fract_y
_atom_site_fract_z
O11	O1	0.415600	0.149200	0.647500
O21	O2	0.263800	0.865400	0.557500
C11	C1	0.754600	0.295800	0.823800
C21	C2	0.676800	0.227800	0.730700
C31	C3	0.494100	0.210800	0.726200
C41	C4	0.211000	0.808000	0.644500
C51	C5	0.614100	0.731600	0.819100
H11	H1	0.691500	0.649400	0.793800
H21	H2	0.537500	0.691400	0.875900
H31	H3	0.683900	0.816500	0.848300
C61	C6	0.983200	0.221500	0.652900
H41	H4	0.041700	0.180200	0.588700
H51	H5	0.029000	0.170600	0.717800
H61	H6	0.004400	0.332600	0.657800
N11	N1	0.822000	0.351100	0.897400
O31	O3	0.584400	0.850800	0.647500
O41	O4	0.736200	0.134600	0.557500
C71	C7	0.245400	0.704200	0.823800
C81	C8	0.323200	0.772200	0.730700
C91	C9	0.505900	0.789200	0.726200
C101	C10	0.789000	0.192000	0.644500
C111	C11	0.385900	0.268400	0.819100
H71	H7	0.308500	0.350600	0.793800
H81	H8	0.462500	0.308600	0.875900
H91	H9	0.316100	0.183500	0.848300
C121	C12	0.016800	0.778500	0.652900
H101	H10	0.958300	0.819800	0.588700
H111	H11	0.971000	0.829400	0.717800
H121	H12	0.995600	0.667400	0.657800
N21	N2	0.178000	0.648900	0.897400
O51	O5	0.584400	0.149200	0.352500
O61	O6	0.736200	0.865400	0.442500
C131	C13	0.245400	0.295800	0.176200
C141	C14	0.323200	0.227800	0.269300
C151	C15	0.505900	0.210800	0.273800
C161	C16	0.789000	0.808000	0.355500
C171	C17	0.385900	0.731600	0.180900
H131	H13	0.308500	0.649400	0.206200
H141	H14	0.462500	0.691400	0.124100
H151	H15	0.316100	0.816500	0.151700
C181	C18	0.016800	0.221500	0.347100
H161	H16	0.958300	0.180200	0.411300
H171	H17	0.971000	0.170600	0.282200
H181	H18	0.995600	0.332600	0.342200
N31	N3	0.178000	0.351100	0.102600
O71	O7	0.415600	0.850800	0.352500
O81	O8	0.263800	0.134600	0.442500
C191	C19	0.754600	0.704200	0.176200
C201	C20	0.676800	0.772200	0.269300
C211	C21	0.494100	0.789200	0.273800
C221	C22	0.211000	0.192000	0.355500
C231	C23	0.614100	0.268400	0.180900
H191	H19	0.691500	0.350600	0.206200
H201	H20	0.537500	0.308600	0.124100
H211	H21	0.683900	0.183500	0.151700
C241	C24	0.983200	0.778500	0.347100
H221	H22	0.041700	0.819800	0.411300
H231	H23	0.029000	0.829400	0.282200
H241	H24	0.004400	0.667400	0.342200
N41	N4	0.822000	0.648900	0.102600
Ag11	Ag1	0.000000	0.500000	0.000000
Yb11	Yb1	0.500000	0.000000	0.500000
