data_ZAYKER_charged_PM
_symmetry_space_group_name_H-M	'P1'
_cell_length_a	12.232000
_cell_length_b	21.818000
_cell_length_c	22.784000
_cell_angle_alpha	90.000000
_cell_angle_beta	91.401000
_cell_angle_gamma	90.000000
_symmetry_Int_Tables_number 1

loop_
_symmetry_equiv_pos_as_xyz
'x,y,z'

loop_
_atom_site_label
_atom_site_type_symbol
_atom_site_fract_x
_atom_site_fract_y
_atom_site_fract_z
Sm11	Sm1	0.867170	0.289970	0.913360
Sm21	Sm2	0.352480	0.383800	0.915500
Sm31	Sm3	0.132830	0.789970	0.586640
Sm41	Sm4	0.647520	0.883800	0.584500
Sm51	Sm5	0.132830	0.710030	0.086640
Sm61	Sm6	0.647520	0.616200	0.084500
Sm71	Sm7	0.867170	0.210030	0.413360
Sm81	Sm8	0.352480	0.116200	0.415500
H11	H1	0.380800	0.424500	0.764000
H21	H2	0.303900	0.414000	0.666200
H31	H3	0.518000	0.337800	0.755000
H41	H4	0.775800	0.293000	0.666100
H51	H5	0.045400	0.345200	0.739800
H61	H6	0.883500	0.278200	0.753700
H71	H7	0.619200	0.924500	0.736000
H81	H8	0.696100	0.914000	0.833800
H91	H9	0.482000	0.837800	0.745000
H101	H10	0.224200	0.793000	0.833900
H111	H11	0.954600	0.845200	0.760200
H121	H12	0.116500	0.778200	0.746300
H131	H13	0.619200	0.575500	0.236000
H141	H14	0.696100	0.586000	0.333800
H151	H15	0.482000	0.662200	0.245000
H161	H16	0.224200	0.707000	0.333900
H171	H17	0.954600	0.654800	0.260200
H181	H18	0.116500	0.721800	0.246300
H191	H19	0.380800	0.075500	0.264000
H201	H20	0.303900	0.086000	0.166200
H211	H21	0.518000	0.162200	0.255000
H221	H22	0.775800	0.207000	0.166100
H231	H23	0.045400	0.154800	0.239800
H241	H24	0.883500	0.221800	0.253700
W11	W1	0.221110	0.078530	0.890930
W21	W2	0.154850	0.955550	0.806580
W31	W3	0.307110	0.219190	0.819070
W41	W4	0.328340	0.227380	0.674690
W51	W5	0.505850	0.143350	0.754850
W61	W6	0.183510	0.965570	0.647450
W71	W7	0.261600	0.090950	0.585340
W81	W8	0.438300	0.010590	0.662120
W91	W9	0.023600	0.167640	0.799470
W101	W10	0.962560	0.046650	0.718410
W111	W11	0.418840	0.000810	0.821970
W121	W12	0.044080	0.179450	0.657250
W131	W13	0.778890	0.578530	0.609070
W141	W14	0.845150	0.455550	0.693420
W151	W15	0.692890	0.719190	0.680930
W161	W16	0.671660	0.727380	0.825310
W171	W17	0.494150	0.643350	0.745150
W181	W18	0.816490	0.465570	0.852550
W191	W19	0.738400	0.590950	0.914660
W201	W20	0.561700	0.510590	0.837880
W211	W21	0.976400	0.667640	0.700530
W221	W22	0.037440	0.546650	0.781590
W231	W23	0.581160	0.500810	0.678030
W241	W24	0.955920	0.679450	0.842750
W251	W25	0.778890	0.921470	0.109070
W261	W26	0.845150	0.044450	0.193420
W271	W27	0.692890	0.780810	0.180930
W281	W28	0.671660	0.772620	0.325310
W291	W29	0.494150	0.856650	0.245150
W301	W30	0.816490	0.034430	0.352550
W311	W31	0.738400	0.909050	0.414660
W321	W32	0.561700	0.989410	0.337880
W331	W33	0.976400	0.832360	0.200530
W341	W34	0.037440	0.953350	0.281590
W351	W35	0.581160	0.999190	0.178030
W361	W36	0.955920	0.820550	0.342750
W371	W37	0.221110	0.421470	0.390930
W381	W38	0.154850	0.544450	0.306580
W391	W39	0.307110	0.280810	0.319070
W401	W40	0.328340	0.272620	0.174690
W411	W41	0.505850	0.356650	0.254850
W421	W42	0.183510	0.534430	0.147450
W431	W43	0.261600	0.409050	0.085340
W441	W44	0.438300	0.489410	0.162120
W451	W45	0.023600	0.332360	0.299470
W461	W46	0.962560	0.453350	0.218410
W471	W47	0.418840	0.499190	0.321970
W481	W48	0.044080	0.320550	0.157250
C11	C1	0.104000	0.351000	0.858100
C21	C2	0.610000	0.328000	0.871500
C31	C3	0.309000	0.407600	0.759500
C41	C4	0.655000	0.315000	0.810500
C51	C5	0.164000	0.367000	0.804000
C61	C6	0.265000	0.402000	0.700500
C71	C7	0.591000	0.322000	0.754700
C81	C8	0.743000	0.296000	0.704000
C91	C9	0.117000	0.363000	0.745000
C101	C10	0.807000	0.286000	0.756000
C111	C11	0.896000	0.851000	0.641900
C121	C12	0.390000	0.828000	0.628500
C131	C13	0.691000	0.907600	0.740500
C141	C14	0.345000	0.815000	0.689500
C151	C15	0.836000	0.867000	0.696000
C161	C16	0.735000	0.902000	0.799500
C171	C17	0.409000	0.822000	0.745300
C181	C18	0.257000	0.796000	0.796000
C191	C19	0.883000	0.863000	0.755000
C201	C20	0.193000	0.786000	0.744000
C211	C21	0.896000	0.649000	0.141900
C221	C22	0.390000	0.672000	0.128500
C231	C23	0.691000	0.592400	0.240500
C241	C24	0.345000	0.685000	0.189500
C251	C25	0.836000	0.633000	0.196000
C261	C26	0.735000	0.598000	0.299500
C271	C27	0.409000	0.678000	0.245300
C281	C28	0.257000	0.704000	0.296000
C291	C29	0.883000	0.637000	0.255000
C301	C30	0.193000	0.714000	0.244000
C311	C31	0.104000	0.149000	0.358100
C321	C32	0.610000	0.172000	0.371500
C331	C33	0.309000	0.092400	0.259500
C341	C34	0.655000	0.185000	0.310500
C351	C35	0.164000	0.133000	0.304000
C361	C36	0.265000	0.098000	0.200500
C371	C37	0.591000	0.178000	0.254700
C381	C38	0.743000	0.204000	0.204000
C391	C39	0.117000	0.137000	0.245000
C401	C40	0.807000	0.214000	0.256000
N11	N1	0.264000	0.391800	0.806700
N21	N2	0.761000	0.296100	0.810600
N31	N3	0.165000	0.379500	0.698000
N41	N4	0.630000	0.306800	0.708100
N51	N5	0.736000	0.891800	0.693300
N61	N6	0.239000	0.796100	0.689400
N71	N7	0.835000	0.879500	0.802000
N81	N8	0.370000	0.806800	0.791900
N91	N9	0.736000	0.608200	0.193300
N101	N10	0.239000	0.703900	0.189400
N111	N11	0.835000	0.620500	0.302000
N121	N12	0.370000	0.693200	0.291900
N131	N13	0.264000	0.108200	0.306700
N141	N14	0.761000	0.203900	0.310600
N151	N15	0.165000	0.120500	0.198000
N161	N16	0.630000	0.193200	0.208100
O11	O1	0.201000	0.086500	0.960100
O21	O2	0.554000	0.971100	0.640200
O31	O3	0.938000	0.209600	0.842800
O41	O4	0.014000	0.325700	0.852400
O51	O5	0.841000	0.013000	0.709600
O61	O6	0.267000	0.106300	0.515200
O71	O7	0.147000	0.899100	0.612800
O81	O8	0.666000	0.319700	0.918200
O91	O9	0.475000	0.208600	0.695500
O101	O10	0.758000	0.200300	0.918900
O111	O11	0.515000	0.348000	0.874700
O121	O12	0.157000	0.363900	0.907500
O131	O13	0.276000	0.048600	0.669200
O141	O14	0.519000	0.959700	0.858300
O151	O15	0.973000	0.220600	0.607400
O161	O16	0.490000	0.431300	0.980100
O171	O17	0.478000	0.076600	0.808900
O181	O18	0.103000	0.115200	0.728100
O191	O19	0.176000	0.226400	0.668200
O201	O20	0.941000	0.113700	0.658700
O211	O21	0.356000	0.290300	0.635700
O221	O22	0.501000	0.082000	0.694700
O231	O23	0.319000	0.270900	0.750400
O241	O24	0.093000	0.115900	0.854400
O251	O25	0.461000	0.203200	0.814200
O261	O26	0.259000	0.482000	0.922300
O271	O27	0.341000	0.948800	0.645100
O281	O28	0.187000	0.013900	0.576100
O291	O29	0.995000	0.349200	0.978500
O301	O30	0.990000	0.217000	0.969600
O311	O31	0.919000	0.104900	0.777000
O321	O32	0.333000	0.163800	0.617300
O331	O33	0.253000	0.044100	0.800500
O341	O34	0.144000	0.999700	0.880800
O351	O35	0.154000	0.216000	0.803500
O361	O36	0.102000	0.889000	0.822700
O371	O37	0.310000	0.936700	0.826500
O381	O38	0.037000	0.996700	0.777500
O391	O39	0.408000	0.050000	0.588300
O401	O40	0.438000	0.981900	0.745200
O411	O41	0.320400	0.280300	0.869500
O421	O42	0.412000	0.293500	0.983300
O431	O43	0.799000	0.294000	0.016500
O441	O44	0.193000	0.941500	0.726000
O451	O45	0.989000	0.209700	0.729500
O461	O46	0.329000	0.155500	0.744200
O471	O47	0.048000	0.002100	0.663600
O481	O48	0.357000	0.041000	0.892600
O491	O49	0.301000	0.152500	0.865600
O501	O50	0.123000	0.125600	0.604600
O511	O51	0.635000	0.153000	0.758900
O521	O52	0.799000	0.586500	0.539900
O531	O53	0.446000	0.471100	0.859800
O541	O54	0.062000	0.709600	0.657200
O551	O55	0.986000	0.825700	0.647600
O561	O56	0.159000	0.513000	0.790400
O571	O57	0.733000	0.606300	0.984800
O581	O58	0.853000	0.399100	0.887200
O591	O59	0.334000	0.819700	0.581800
O601	O60	0.525000	0.708600	0.804500
O611	O61	0.242000	0.700300	0.581100
O621	O62	0.485000	0.848000	0.625300
O631	O63	0.843000	0.863900	0.592500
O641	O64	0.724000	0.548600	0.830800
O651	O65	0.481000	0.459700	0.641700
O661	O66	0.027000	0.720600	0.892600
O671	O67	0.510000	0.931300	0.519900
O681	O68	0.522000	0.576600	0.691100
O691	O69	0.897000	0.615200	0.771900
O701	O70	0.824000	0.726400	0.831800
O711	O71	0.059000	0.613700	0.841300
O721	O72	0.644000	0.790300	0.864300
O731	O73	0.499000	0.582000	0.805300
O741	O74	0.681000	0.770900	0.749600
O751	O75	0.907000	0.615900	0.645600
O761	O76	0.539000	0.703200	0.685800
O771	O77	0.741000	0.982000	0.577700
O781	O78	0.659000	0.448800	0.854900
O791	O79	0.813000	0.513900	0.923900
O801	O80	0.005000	0.849200	0.521500
O811	O81	0.010000	0.717000	0.530400
O821	O82	0.081000	0.604900	0.723000
O831	O83	0.667000	0.663800	0.882700
O841	O84	0.747000	0.544100	0.699500
O851	O85	0.856000	0.499700	0.619200
O861	O86	0.846000	0.716000	0.696500
O871	O87	0.898000	0.389000	0.677300
O881	O88	0.690000	0.436700	0.673500
O891	O89	0.963000	0.496700	0.722500
O901	O90	0.592000	0.550000	0.911700
O911	O91	0.562000	0.481900	0.754800
O921	O92	0.679600	0.780300	0.630500
O931	O93	0.588000	0.793500	0.516700
O941	O94	0.201000	0.794000	0.483500
O951	O95	0.807000	0.441500	0.774000
O961	O96	0.011000	0.709700	0.770500
O971	O97	0.671000	0.655500	0.755800
O981	O98	0.952000	0.502100	0.836400
O991	O99	0.643000	0.541000	0.607400
O1001	O100	0.699000	0.652500	0.634400
O1011	O101	0.877000	0.625600	0.895400
O1021	O102	0.365000	0.653000	0.741100
O1031	O103	0.799000	0.913500	0.039900
O1041	O104	0.446000	0.028900	0.359800
O1051	O105	0.062000	0.790400	0.157200
O1061	O106	0.986000	0.674300	0.147600
O1071	O107	0.159000	0.987000	0.290400
O1081	O108	0.733000	0.893700	0.484800
O1091	O109	0.853000	0.100900	0.387200
O1101	O110	0.334000	0.680300	0.081800
O1111	O111	0.525000	0.791400	0.304500
O1121	O112	0.242000	0.799700	0.081100
O1131	O113	0.485000	0.652000	0.125300
O1141	O114	0.843000	0.636100	0.092500
O1151	O115	0.724000	0.951400	0.330800
O1161	O116	0.481000	0.040300	0.141700
O1171	O117	0.027000	0.779400	0.392600
O1181	O118	0.510000	0.568700	0.019900
O1191	O119	0.522000	0.923400	0.191100
O1201	O120	0.897000	0.884800	0.271900
O1211	O121	0.824000	0.773600	0.331800
O1221	O122	0.059000	0.886300	0.341300
O1231	O123	0.644000	0.709700	0.364300
O1241	O124	0.499000	0.918000	0.305300
O1251	O125	0.681000	0.729100	0.249600
O1261	O126	0.907000	0.884100	0.145600
O1271	O127	0.539000	0.796800	0.185800
O1281	O128	0.741000	0.518000	0.077700
O1291	O129	0.659000	0.051200	0.354900
O1301	O130	0.813000	0.986100	0.423900
O1311	O131	0.005000	0.650800	0.021500
O1321	O132	0.010000	0.783000	0.030400
O1331	O133	0.081000	0.895100	0.223000
O1341	O134	0.667000	0.836200	0.382700
O1351	O135	0.747000	0.955900	0.199500
O1361	O136	0.856000	0.000300	0.119200
O1371	O137	0.846000	0.784000	0.196500
O1381	O138	0.898000	0.111000	0.177300
O1391	O139	0.690000	0.063300	0.173500
O1401	O140	0.963000	0.003300	0.222500
O1411	O141	0.592000	0.950000	0.411700
O1421	O142	0.562000	0.018100	0.254800
O1431	O143	0.679600	0.719700	0.130500
O1441	O144	0.588000	0.706500	0.016700
O1451	O145	0.201000	0.706000	0.983500
O1461	O146	0.807000	0.058500	0.274000
O1471	O147	0.011000	0.790300	0.270500
O1481	O148	0.671000	0.844500	0.255800
O1491	O149	0.952000	0.997900	0.336400
O1501	O150	0.643000	0.959000	0.107400
O1511	O151	0.699000	0.847500	0.134400
O1521	O152	0.877000	0.874400	0.395400
O1531	O153	0.365000	0.847000	0.241100
O1541	O154	0.201000	0.413500	0.460100
O1551	O155	0.554000	0.528900	0.140200
O1561	O156	0.938000	0.290400	0.342800
O1571	O157	0.014000	0.174300	0.352400
O1581	O158	0.841000	0.487000	0.209600
O1591	O159	0.267000	0.393700	0.015200
O1601	O160	0.147000	0.600900	0.112800
O1611	O161	0.666000	0.180300	0.418200
O1621	O162	0.475000	0.291400	0.195500
O1631	O163	0.758000	0.299700	0.418900
O1641	O164	0.515000	0.152000	0.374700
O1651	O165	0.157000	0.136100	0.407500
O1661	O166	0.276000	0.451400	0.169200
O1671	O167	0.519000	0.540300	0.358300
O1681	O168	0.973000	0.279400	0.107400
O1691	O169	0.490000	0.068700	0.480100
O1701	O170	0.478000	0.423400	0.308900
O1711	O171	0.103000	0.384800	0.228100
O1721	O172	0.176000	0.273600	0.168200
O1731	O173	0.941000	0.386300	0.158700
O1741	O174	0.356000	0.209700	0.135700
O1751	O175	0.501000	0.418000	0.194700
O1761	O176	0.319000	0.229100	0.250400
O1771	O177	0.093000	0.384100	0.354400
O1781	O178	0.461000	0.296800	0.314200
O1791	O179	0.259000	0.018000	0.422300
O1801	O180	0.341000	0.551200	0.145100
O1811	O181	0.187000	0.486100	0.076100
O1821	O182	0.995000	0.150800	0.478500
O1831	O183	0.990000	0.283000	0.469600
O1841	O184	0.919000	0.395100	0.277000
O1851	O185	0.333000	0.336200	0.117300
O1861	O186	0.253000	0.455900	0.300500
O1871	O187	0.144000	0.500300	0.380800
O1881	O188	0.154000	0.284000	0.303500
O1891	O189	0.102000	0.611000	0.322700
O1901	O190	0.310000	0.563300	0.326500
O1911	O191	0.037000	0.503300	0.277500
O1921	O192	0.408000	0.450000	0.088300
O1931	O193	0.438000	0.518100	0.245200
O1941	O194	0.320400	0.219700	0.369500
O1951	O195	0.412000	0.206500	0.483300
O1961	O196	0.799000	0.206000	0.516500
O1971	O197	0.193000	0.558500	0.226000
O1981	O198	0.989000	0.290300	0.229500
O1991	O199	0.329000	0.344500	0.244200
O2001	O200	0.048000	0.497900	0.163600
O2011	O201	0.357000	0.459000	0.392600
O2021	O202	0.301000	0.347500	0.365600
O2031	O203	0.123000	0.374400	0.104600
O2041	O204	0.635000	0.347000	0.258900
H251	H25	0.922600	0.461800	0.442900
H261	H26	0.869600	0.525600	0.428000
H271	H27	0.847200	0.469300	0.386700
H281	H28	0.963300	0.499800	0.389300
N171	N17	0.901000	0.489000	0.412000
H291	H29	0.734000	0.096300	0.086200
H301	H30	0.645600	0.122800	0.042100
H311	H31	0.691100	0.056300	0.033300
H321	H32	0.766100	0.113200	0.022000
N181	N18	0.709000	0.097000	0.046000
H331	H33	0.077400	0.961800	0.057100
H341	H34	0.130400	0.025600	0.072000
H351	H35	0.152800	0.969300	0.113300
H361	H36	0.036700	0.999800	0.110700
N191	N19	0.099000	0.989000	0.088000
H371	H37	0.266000	0.596300	0.413800
H381	H38	0.354400	0.622800	0.457900
H391	H39	0.308900	0.556300	0.466700
H401	H40	0.233900	0.613200	0.478000
N201	N20	0.291000	0.597000	0.454000
H411	H41	0.077400	0.538200	0.557100
H421	H42	0.130400	0.474400	0.572000
H431	H43	0.152800	0.530700	0.613300
H441	H44	0.036700	0.500200	0.610700
N211	N21	0.099000	0.511000	0.588000
H451	H45	0.266000	0.903700	0.913800
H461	H46	0.354400	0.877200	0.957900
H471	H47	0.308900	0.943700	0.966700
H481	H48	0.233900	0.886800	0.978000
N221	N22	0.291000	0.903000	0.954000
H491	H49	0.922600	0.038200	0.942900
H501	H50	0.869600	0.974400	0.928000
H511	H51	0.847200	0.030700	0.886700
H521	H52	0.963300	0.000200	0.889300
N231	N23	0.901000	0.011000	0.912000
H531	H53	0.734000	0.403700	0.586200
H541	H54	0.645600	0.377200	0.542100
H551	H55	0.691100	0.443700	0.533300
H561	H56	0.766100	0.386800	0.522000
N241	N24	0.709000	0.403000	0.546000
