data_ZEDVUB_charged_PM
_symmetry_space_group_name_H-M	'P1'
_cell_length_a	11.365000
_cell_length_b	24.003000
_cell_length_c	32.883000
_cell_angle_alpha	97.170000
_cell_angle_beta	90.000000
_cell_angle_gamma	90.000000
_symmetry_Int_Tables_number 1

loop_
_symmetry_equiv_pos_as_xyz
'x,y,z'

loop_
_atom_site_label
_atom_site_type_symbol
_atom_site_fract_x
_atom_site_fract_y
_atom_site_fract_z
Sm11	Sm1	0.240090	0.412100	0.627280
Sm21	Sm2	0.731270	0.128450	0.398460
Sm31	Sm3	0.740090	0.087910	0.872720
Sm41	Sm4	0.231270	0.371550	0.101540
Sm51	Sm5	0.759910	0.587910	0.372720
Sm61	Sm6	0.268730	0.871550	0.601540
Sm71	Sm7	0.259910	0.912090	0.127280
Sm81	Sm8	0.768730	0.628450	0.898460
H11	H1	0.355200	0.579900	0.731300
H21	H2	0.563100	0.443800	0.729400
H31	H3	0.346400	0.437400	0.482900
H41	H4	0.566800	0.517900	0.566800
H51	H5	0.152700	0.449200	0.525300
H61	H6	0.873900	0.553000	0.544600
H71	H7	0.115400	0.340300	0.527400
H81	H8	0.067300	0.318400	0.460100
H91	H9	0.799500	0.223600	0.490900
H101	H10	0.850500	0.243200	0.559400
H111	H11	0.553000	0.209600	0.589300
H121	H12	0.606600	0.181700	0.521700
H131	H13	0.321800	0.261700	0.483900
H141	H14	0.274400	0.292000	0.551600
H151	H15	0.467000	0.625800	0.783900
H161	H16	0.678500	0.491000	0.781000
H171	H17	0.043300	0.987900	0.430500
H181	H18	0.863800	0.067000	0.525900
H191	H19	0.650300	0.058800	0.482800
H201	H20	0.375100	0.957100	0.449700
H211	H21	0.855200	0.920100	0.768700
H221	H22	0.063100	0.056200	0.770600
H231	H23	0.846400	0.062600	0.017100
H241	H24	0.066800	0.982100	0.933200
H251	H25	0.652700	0.050800	0.974700
H261	H26	0.373900	0.947000	0.955400
H271	H27	0.615400	0.159700	0.972600
H281	H28	0.567300	0.181600	0.039900
H291	H29	0.299500	0.276400	0.009100
H301	H30	0.350500	0.256800	0.940600
H311	H31	0.053000	0.290400	0.910700
H321	H32	0.106600	0.318300	0.978300
H331	H33	0.821800	0.238300	0.016100
H341	H34	0.774400	0.208000	0.948400
H351	H35	0.967000	0.874200	0.716100
H361	H36	0.178500	0.009000	0.719000
H371	H37	0.543300	0.512100	0.069500
H381	H38	0.363800	0.433000	0.974100
H391	H39	0.150300	0.441200	0.017200
H401	H40	0.875100	0.542900	0.050300
H411	H41	0.644800	0.420100	0.268700
H421	H42	0.436900	0.556200	0.270600
H431	H43	0.653600	0.562600	0.517100
H441	H44	0.433200	0.482100	0.433200
H451	H45	0.847300	0.550800	0.474700
H461	H46	0.126100	0.447000	0.455400
H471	H47	0.884600	0.659700	0.472600
H481	H48	0.932700	0.681600	0.539900
H491	H49	0.200500	0.776400	0.509100
H501	H50	0.149500	0.756800	0.440600
H511	H51	0.447000	0.790400	0.410700
H521	H52	0.393400	0.818300	0.478300
H531	H53	0.678200	0.738300	0.516100
H541	H54	0.725600	0.708000	0.448400
H551	H55	0.533000	0.374200	0.216100
H561	H56	0.321500	0.509000	0.219000
H571	H57	0.956700	0.012100	0.569500
H581	H58	0.136200	0.933000	0.474100
H591	H59	0.349700	0.941200	0.517200
H601	H60	0.624900	0.042900	0.550300
H611	H61	0.144800	0.079900	0.231300
H621	H62	0.936900	0.943800	0.229400
H631	H63	0.153600	0.937400	0.982900
H641	H64	0.933200	0.017900	0.066800
H651	H65	0.347300	0.949200	0.025300
H661	H66	0.626100	0.053000	0.044600
H671	H67	0.384600	0.840300	0.027400
H681	H68	0.432700	0.818400	0.960100
H691	H69	0.700500	0.723600	0.990900
H701	H70	0.649500	0.743200	0.059400
H711	H71	0.947000	0.709600	0.089300
H721	H72	0.893400	0.681700	0.021700
H731	H73	0.178200	0.761700	0.983900
H741	H74	0.225600	0.792000	0.051600
H751	H75	0.033000	0.125800	0.283900
H761	H76	0.821500	0.991000	0.281000
H771	H77	0.456700	0.487900	0.930500
H781	H78	0.636200	0.567000	0.025900
H791	H79	0.849700	0.558800	0.982800
H801	H80	0.124900	0.457100	0.949700
C11	C1	0.372500	0.476200	0.692600
C21	C2	0.446300	0.506800	0.725600
C31	C3	0.418900	0.561700	0.741700
C41	C4	0.544000	0.480300	0.740400
C51	C5	0.385100	0.445900	0.562900
C61	C6	0.444900	0.473800	0.530600
C71	C7	0.407400	0.462700	0.489800
C81	C8	0.539700	0.511100	0.539900
C91	C9	0.033400	0.504900	0.588400
C101	C10	0.014500	0.501100	0.542700
C111	C11	0.091600	0.469400	0.515300
C121	C12	0.924400	0.531600	0.526700
C131	C13	0.017900	0.308900	0.595800
C141	C14	0.989400	0.294700	0.550900
C151	C15	0.052100	0.316500	0.520300
C161	C16	0.022700	0.303800	0.480000
C171	C17	0.926300	0.269100	0.468100
C181	C18	0.863300	0.246900	0.498300
C191	C19	0.893300	0.258800	0.539500
C201	C20	0.892000	0.256600	0.424500
C211	C21	0.385300	0.280200	0.620700
C221	C22	0.411200	0.256400	0.577500
C231	C23	0.508700	0.221400	0.568200
C241	C24	0.540100	0.203900	0.527500
C251	C25	0.471700	0.219700	0.495600
C261	C26	0.369900	0.252300	0.504900
C271	C27	0.341400	0.270300	0.545600
C281	C28	0.507900	0.202900	0.452100
C291	C29	0.656500	0.590400	0.822000
C301	C30	0.582500	0.562500	0.787900
C311	C31	0.486100	0.589300	0.772900
C321	C32	0.612800	0.508400	0.771400
C331	C33	0.879900	0.068000	0.446400
C341	C34	0.943000	0.032700	0.473800
C351	C35	0.025700	0.992700	0.458300
C361	C36	0.918200	0.040100	0.515500
C371	C37	0.530300	0.020200	0.415500
C381	C38	0.514700	0.010400	0.458800
C391	C39	0.589900	0.035400	0.489500
C401	C40	0.425000	0.974500	0.469800
C411	C41	0.872500	0.023800	0.807400
C421	C42	0.946300	0.993200	0.774400
C431	C43	0.918900	0.938300	0.758300
C441	C44	0.044000	0.019700	0.759600
C451	C45	0.885100	0.054100	0.937100
C461	C46	0.944900	0.026200	0.969400
C471	C47	0.907400	0.037300	0.010200
C481	C48	0.039700	0.988900	0.960100
C491	C49	0.533400	0.995100	0.911600
C501	C50	0.514500	0.998900	0.957300
C511	C51	0.591600	0.030600	0.984700
C521	C52	0.424400	0.968400	0.973300
C531	C53	0.517900	0.191100	0.904200
C541	C54	0.489400	0.205300	0.949100
C551	C55	0.552100	0.183500	0.979700
C561	C56	0.522700	0.196200	0.020000
C571	C57	0.426300	0.230900	0.031900
C581	C58	0.363300	0.253100	0.001700
C591	C59	0.393300	0.241200	0.960500
C601	C60	0.392000	0.243400	0.075500
C611	C61	0.885300	0.219800	0.879300
C621	C62	0.911200	0.243600	0.922500
C631	C63	0.008700	0.278600	0.931800
C641	C64	0.040100	0.296100	0.972500
C651	C65	0.971700	0.280300	0.004400
C661	C66	0.869900	0.247700	0.995100
C671	C67	0.841400	0.229700	0.954400
C681	C68	0.007900	0.297100	0.047900
C691	C69	0.156500	0.909600	0.678000
C701	C70	0.082500	0.937500	0.712100
C711	C71	0.986100	0.910700	0.727100
C721	C72	0.112800	0.991600	0.728600
C731	C73	0.379900	0.432000	0.053600
C741	C74	0.443000	0.467300	0.026200
C751	C75	0.525700	0.507300	0.041700
C761	C76	0.418200	0.459900	0.984500
C771	C77	0.030300	0.479800	0.084500
C781	C78	0.014700	0.489600	0.041200
C791	C79	0.089900	0.464600	0.010500
C801	C80	0.925000	0.525500	0.030200
C811	C81	0.627500	0.523800	0.307400
C821	C82	0.553700	0.493200	0.274400
C831	C83	0.581100	0.438300	0.258300
C841	C84	0.456000	0.519700	0.259600
C851	C85	0.614900	0.554100	0.437100
C861	C86	0.555100	0.526200	0.469400
C871	C87	0.592600	0.537300	0.510200
C881	C88	0.460300	0.488900	0.460100
C891	C89	0.966600	0.495100	0.411600
C901	C90	0.985500	0.498900	0.457300
C911	C91	0.908400	0.530600	0.484700
C921	C92	0.075600	0.468400	0.473300
C931	C93	0.982100	0.691100	0.404200
C941	C94	0.010600	0.705300	0.449100
C951	C95	0.947900	0.683500	0.479700
C961	C96	0.977300	0.696200	0.520000
C971	C97	0.073700	0.730900	0.531900
C981	C98	0.136700	0.753100	0.501700
C991	C99	0.106700	0.741200	0.460500
C1001	C100	0.108000	0.743400	0.575500
C1011	C101	0.614700	0.719800	0.379300
C1021	C102	0.588800	0.743600	0.422500
C1031	C103	0.491300	0.778600	0.431800
C1041	C104	0.459900	0.796100	0.472500
C1051	C105	0.528300	0.780300	0.504400
C1061	C106	0.630100	0.747700	0.495100
C1071	C107	0.658600	0.729700	0.454400
C1081	C108	0.492100	0.797100	0.547900
C1091	C109	0.343500	0.409600	0.178000
C1101	C110	0.417500	0.437500	0.212100
C1111	C111	0.513900	0.410700	0.227100
C1121	C112	0.387200	0.491600	0.228600
C1131	C113	0.120100	0.932000	0.553600
C1141	C114	0.057000	0.967300	0.526200
C1151	C115	0.974300	0.007300	0.541700
C1161	C116	0.081800	0.959900	0.484500
C1171	C117	0.469700	0.979800	0.584500
C1181	C118	0.485300	0.989600	0.541200
C1191	C119	0.410100	0.964600	0.510500
C1201	C120	0.575000	0.025500	0.530200
C1211	C121	0.127500	0.976200	0.192600
C1221	C122	0.053700	0.006800	0.225600
C1231	C123	0.081100	0.061700	0.241700
C1241	C124	0.956000	0.980300	0.240400
C1251	C125	0.114900	0.945900	0.062900
C1261	C126	0.055100	0.973800	0.030600
C1271	C127	0.092600	0.962700	0.989800
C1281	C128	0.960300	0.011100	0.039900
C1291	C129	0.466600	0.004900	0.088400
C1301	C130	0.485500	0.001100	0.042700
C1311	C131	0.408400	0.969400	0.015300
C1321	C132	0.575600	0.031600	0.026700
C1331	C133	0.482100	0.808900	0.095800
C1341	C134	0.510600	0.794700	0.050900
C1351	C135	0.447900	0.816500	0.020300
C1361	C136	0.477300	0.803800	0.980000
C1371	C137	0.573700	0.769100	0.968100
C1381	C138	0.636700	0.746900	0.998300
C1391	C139	0.606700	0.758800	0.039500
C1401	C140	0.608000	0.756600	0.924500
C1411	C141	0.114700	0.780200	0.120700
C1421	C142	0.088800	0.756400	0.077500
C1431	C143	0.991300	0.721400	0.068200
C1441	C144	0.959900	0.703900	0.027500
C1451	C145	0.028300	0.719700	0.995600
C1461	C146	0.130100	0.752300	0.004900
C1471	C147	0.158600	0.770300	0.045600
C1481	C148	0.992100	0.702900	0.952100
C1491	C149	0.843500	0.090400	0.322000
C1501	C150	0.917500	0.062500	0.287900
C1511	C151	0.013900	0.089300	0.272900
C1521	C152	0.887200	0.008400	0.271400
C1531	C153	0.620100	0.568000	0.946400
C1541	C154	0.557000	0.532700	0.973800
C1551	C155	0.474300	0.492700	0.958300
C1561	C156	0.581800	0.540100	0.015500
C1571	C157	0.969700	0.520200	0.915500
C1581	C158	0.985300	0.510400	0.958800
C1591	C159	0.910100	0.535400	0.989500
C1601	C160	0.075000	0.474500	0.969800
O11	O1	0.120600	0.410900	0.688430
O21	O2	0.287300	0.500500	0.676750
O31	O3	0.396700	0.424600	0.680420
O41	O4	0.585700	0.173400	0.360550
O51	O5	0.407300	0.465000	0.600520
O61	O6	0.313400	0.406900	0.553970
O71	O7	0.117300	0.476000	0.600950
O81	O8	0.968600	0.537100	0.612060
O91	O9	0.093800	0.348400	0.603920
O101	O10	0.964900	0.285400	0.621290
O111	O11	0.825500	0.215900	0.413430
O121	O12	0.933000	0.287800	0.399550
O131	O13	0.335100	0.326300	0.626530
O141	O14	0.413400	0.252500	0.649240
O151	O15	0.598700	0.172400	0.446780
O161	O16	0.449400	0.219000	0.423450
O171	O17	0.753600	0.570400	0.831030
O181	O18	0.619400	0.635400	0.843140
O191	O19	0.887000	0.055100	0.408030
O201	O20	0.821400	0.109500	0.461980
O211	O21	0.610000	0.052800	0.406970
O221	O22	0.461500	0.996100	0.388590
O231	O23	0.620600	0.089100	0.811570
O241	O24	0.787300	0.999500	0.823250
O251	O25	0.896700	0.075400	0.819580
O261	O26	0.085700	0.326600	0.139450
O271	O27	0.907300	0.035000	0.899480
O281	O28	0.813400	0.093100	0.946030
O291	O29	0.617300	0.024000	0.899050
O301	O30	0.468600	0.962900	0.887940
O311	O31	0.593800	0.151600	0.896080
O321	O32	0.464900	0.214600	0.878710
O331	O33	0.325500	0.284100	0.086570
O341	O34	0.433000	0.212200	0.100450
O351	O35	0.835100	0.173700	0.873470
O361	O36	0.913400	0.247500	0.850760
O371	O37	0.098700	0.327600	0.053220
O381	O38	0.949400	0.281000	0.076550
O391	O39	0.253600	0.929600	0.668970
O401	O40	0.119400	0.864600	0.656860
O411	O41	0.387000	0.444900	0.091970
O421	O42	0.321400	0.390500	0.038020
O431	O43	0.110000	0.447200	0.093030
O441	O44	0.961500	0.503900	0.111410
O451	O45	0.879400	0.589100	0.311570
O461	O46	0.712700	0.499500	0.323250
O471	O47	0.603300	0.575400	0.319580
O481	O48	0.414300	0.826600	0.639450
O491	O49	0.592700	0.535000	0.399480
O501	O50	0.686600	0.593100	0.446030
O511	O51	0.882700	0.524000	0.399050
O521	O52	0.031400	0.462900	0.387940
O531	O53	0.906200	0.651600	0.396080
O541	O54	0.035100	0.714600	0.378710
O551	O55	0.174500	0.784100	0.586570
O561	O56	0.067000	0.712200	0.600450
O571	O57	0.664900	0.673700	0.373470
O581	O58	0.586600	0.747500	0.350760
O591	O59	0.401300	0.827600	0.553220
O601	O60	0.550600	0.781000	0.576550
O611	O61	0.246400	0.429600	0.168970
O621	O62	0.380600	0.364600	0.156860
O631	O63	0.113000	0.944900	0.591970
O641	O64	0.178600	0.890500	0.538020
O651	O65	0.390000	0.947200	0.593030
O661	O66	0.538500	0.003900	0.611410
O671	O67	0.379400	0.910900	0.188430
O681	O68	0.212700	0.000500	0.176750
O691	O69	0.103300	0.924600	0.180420
O701	O70	0.914300	0.673400	0.860550
O711	O71	0.092700	0.965000	0.100520
O721	O72	0.186600	0.906900	0.053970
O731	O73	0.382700	0.976000	0.100950
O741	O74	0.531400	0.037100	0.112060
O751	O75	0.406200	0.848400	0.103920
O761	O76	0.535100	0.785400	0.121290
O771	O77	0.674500	0.715900	0.913430
O781	O78	0.567000	0.787800	0.899550
O791	O79	0.164900	0.826300	0.126530
O801	O80	0.086600	0.752500	0.149240
O811	O81	0.901300	0.672400	0.946780
O821	O82	0.050600	0.719000	0.923450
O831	O83	0.746400	0.070400	0.331030
O841	O84	0.880600	0.135400	0.343140
O851	O85	0.613000	0.555100	0.908030
O861	O86	0.678600	0.609500	0.961980
O871	O87	0.890000	0.552800	0.906970
O881	O88	0.038500	0.496100	0.888590
H811	H81	0.172500	0.621900	0.579900
H821	H82	0.244000	0.565700	0.572800
H831	H83	0.422900	0.560000	0.615700
H841	H84	0.307700	0.715500	0.611900
H851	H85	0.469900	0.720000	0.660200
H861	H86	0.618600	0.688600	0.702500
H871	H87	0.783700	0.653800	0.732200
H881	H88	0.841800	0.560500	0.711900
H891	H89	0.586800	0.463800	0.623700
H901	H90	0.891200	0.468100	0.684500
H911	H91	0.866800	0.373300	0.647100
H921	H92	0.576100	0.354100	0.600900
H931	H93	0.696300	0.322000	0.601300
H941	H94	0.842400	0.402700	0.560800
H951	H95	0.124800	0.585300	0.506100
H961	H96	0.525400	0.337300	0.530800
H971	H97	0.439500	0.651500	0.537000
H981	H98	0.827500	0.378100	0.420100
H991	H99	0.756000	0.434300	0.427200
H1001	H100	0.577100	0.440000	0.384300
H1011	H101	0.692300	0.284500	0.388100
H1021	H102	0.530100	0.280000	0.339800
H1031	H103	0.381400	0.311400	0.297500
H1041	H104	0.216300	0.346200	0.267800
H1051	H105	0.158200	0.439500	0.288100
H1061	H106	0.413200	0.536200	0.376300
H1071	H107	0.108800	0.531900	0.315500
H1081	H108	0.133200	0.626700	0.352900
H1091	H109	0.423900	0.645900	0.399100
H1101	H110	0.303700	0.678000	0.398700
H1111	H111	0.157600	0.597300	0.439200
H1121	H112	0.875200	0.414700	0.493900
H1131	H113	0.474600	0.662700	0.469200
H1141	H114	0.560500	0.348500	0.463000
C1611	C161	0.278600	0.617400	0.529200
C1621	C162	0.249100	0.606000	0.572400
C1631	C163	0.414900	0.598900	0.620300
C1641	C164	0.351600	0.685200	0.618700
C1651	C165	0.440300	0.687800	0.644900
C1661	C166	0.584300	0.615900	0.666400
C1671	C167	0.643600	0.651800	0.695200
C1681	C168	0.740700	0.631000	0.712600
C1691	C169	0.775400	0.575600	0.700800
C1701	C170	0.707200	0.544500	0.672300
C1711	C171	0.658700	0.453100	0.633900
C1721	C172	0.828500	0.455400	0.667700
C1731	C173	0.814800	0.403200	0.647200
C1741	C174	0.660200	0.357200	0.596700
C1751	C175	0.682800	0.367700	0.552900
C1761	C176	0.785300	0.391400	0.541200
C1771	C177	0.195200	0.601300	0.498900
C1781	C178	0.596500	0.352300	0.523300
C1791	C179	0.382400	0.640500	0.517400
C1801	C180	0.721400	0.382600	0.470800
C1811	C181	0.750900	0.394000	0.427600
C1821	C182	0.585100	0.401100	0.379700
C1831	C183	0.648400	0.314800	0.381300
C1841	C184	0.559700	0.312200	0.355100
C1851	C185	0.415700	0.384100	0.333600
C1861	C186	0.356400	0.348200	0.304800
C1871	C187	0.259300	0.369000	0.287400
C1881	C188	0.224600	0.424400	0.299200
C1891	C189	0.292800	0.455500	0.327700
C1901	C190	0.341300	0.546900	0.366100
C1911	C191	0.171500	0.544600	0.332300
C1921	C192	0.185200	0.596800	0.352800
C1931	C193	0.339800	0.642800	0.403300
C1941	C194	0.317200	0.632300	0.447100
C1951	C195	0.214700	0.608600	0.458800
C1961	C196	0.804800	0.398700	0.501100
C1971	C197	0.403500	0.647700	0.476700
C1981	C198	0.617600	0.359500	0.482600
N11	N1	0.336100	0.629300	0.603100
N21	N2	0.480300	0.633900	0.645400
N31	N3	0.613600	0.563200	0.654420
N41	N4	0.731200	0.485900	0.658700
N51	N5	0.708000	0.402900	0.626300
N61	N6	0.663900	0.370700	0.396900
N71	N7	0.519700	0.366100	0.354600
N81	N8	0.386400	0.436800	0.345580
N91	N9	0.268800	0.514100	0.341300
N101	N10	0.292000	0.597100	0.373700
H1151	H115	0.058800	0.161800	0.416500
H1161	H116	0.177300	0.195000	0.415500
H1171	H117	0.060900	0.058100	0.381800
H1181	H118	0.342600	0.149800	0.367100
H1191	H119	0.358900	0.062500	0.318300
H1201	H120	0.300200	0.975900	0.281400
H1211	H121	0.242000	0.886600	0.253400
H1221	H122	0.075900	0.845100	0.281300
H1231	H123	0.888000	0.957100	0.380800
H1241	H124	0.946500	0.803900	0.323000
H1251	H125	0.790300	0.797900	0.373700
H1261	H126	0.651900	0.882600	0.412800
H1271	H127	0.715500	0.940600	0.423100
H1281	H128	0.616200	0.913000	0.489800
H1291	H129	0.662900	0.892500	0.555300
H1301	H130	0.027000	0.170700	0.487900
H1311	H131	0.925200	0.849600	0.447500
H1321	H132	0.941200	0.838200	0.583500
H1331	H133	0.822700	0.805000	0.584500
H1341	H134	0.939100	0.941900	0.618200
H1351	H135	0.657400	0.850200	0.632900
H1361	H136	0.641100	0.937500	0.681700
H1371	H137	0.699800	0.024100	0.718600
H1381	H138	0.758000	0.113400	0.746600
H1391	H139	0.924100	0.154900	0.718700
H1401	H140	0.112000	0.042900	0.619200
H1411	H141	0.053500	0.196100	0.677000
H1421	H142	0.209700	0.202100	0.626300
H1431	H143	0.348100	0.117400	0.587200
H1441	H144	0.284500	0.059400	0.576900
H1451	H145	0.383800	0.087000	0.510200
H1461	H146	0.337100	0.107500	0.444700
H1471	H147	0.973000	0.829300	0.512100
H1481	H148	0.074800	0.150400	0.552500
C1991	C199	0.143700	0.158500	0.418200
C2001	C200	0.132400	0.069800	0.372000
C2011	C201	0.288500	0.120500	0.363600
C2021	C202	0.298300	0.072100	0.336900
C2031	C203	0.170600	0.985900	0.324300
C2041	C204	0.235400	0.958700	0.291700
C2051	C205	0.200900	0.905700	0.275300
C2061	C206	0.103000	0.880500	0.291900
C2071	C207	0.050800	0.911100	0.324300
C2081	C208	0.884200	0.918600	0.372900
C2091	C209	0.916400	0.833400	0.341000
C2101	C210	0.830100	0.830100	0.368500
C2111	C211	0.726900	0.900200	0.420300
C2121	C212	0.766500	0.883300	0.462100
C2131	C213	0.687800	0.896100	0.494400
C2141	C214	0.715800	0.883700	0.533900
C2151	C215	0.176300	0.141900	0.459000
C2161	C216	0.099100	0.154000	0.492100
C2171	C217	0.872500	0.858300	0.469000
C2181	C218	0.856300	0.841500	0.581800
C2191	C219	0.867600	0.930200	0.628000
C2201	C220	0.711500	0.879500	0.636400
C2211	C221	0.701700	0.927900	0.663100
C2221	C222	0.829400	0.014100	0.675700
C2231	C223	0.764600	0.041300	0.708300
C2241	C224	0.799100	0.094300	0.724700
C2251	C225	0.897000	0.119500	0.708100
C2261	C226	0.949200	0.088900	0.675700
C2271	C227	0.115800	0.081400	0.627100
C2281	C228	0.083600	0.166600	0.659000
C2291	C229	0.169900	0.169900	0.631500
C2301	C230	0.273100	0.099800	0.579700
C2311	C231	0.233500	0.116700	0.537900
C2321	C232	0.312200	0.103900	0.505600
C2331	C233	0.284200	0.116300	0.466100
C2341	C234	0.823700	0.858100	0.541000
C2351	C235	0.900900	0.846000	0.507900
C2361	C236	0.127500	0.141700	0.531000
N111	N11	0.185200	0.117700	0.384000
N121	N12	0.199300	0.040400	0.343200
N131	N13	0.078900	0.963200	0.340900
N141	N14	0.952400	0.889300	0.344500
N151	N15	0.812000	0.884100	0.387600
N161	N16	0.814800	0.882300	0.616000
N171	N17	0.800700	0.959600	0.656800
N181	N18	0.921100	0.036800	0.659100
N191	N19	0.047600	0.110700	0.655500
N201	N20	0.188000	0.115900	0.612400
H1491	H149	0.672500	0.878100	0.920100
H1501	H150	0.744000	0.934300	0.927200
H1511	H151	0.922900	0.940000	0.884300
H1521	H152	0.807700	0.784500	0.888100
H1531	H153	0.969900	0.780000	0.839800
H1541	H154	0.118600	0.811400	0.797500
H1551	H155	0.283700	0.846200	0.767800
H1561	H156	0.341800	0.939500	0.788100
H1571	H157	0.086800	0.036200	0.876300
H1581	H158	0.391200	0.031900	0.815500
H1591	H159	0.366800	0.126700	0.852900
H1601	H160	0.076100	0.145900	0.899100
H1611	H161	0.196300	0.178000	0.898700
H1621	H162	0.342400	0.097300	0.939200
H1631	H163	0.624800	0.914700	0.993900
H1641	H164	0.025400	0.162700	0.969200
H1651	H165	0.939500	0.848500	0.963000
H1661	H166	0.327500	0.121900	0.079900
H1671	H167	0.256000	0.065700	0.072800
H1681	H168	0.077100	0.060000	0.115700
H1691	H169	0.192300	0.215500	0.111900
H1701	H170	0.030100	0.220000	0.160200
H1711	H171	0.881400	0.188600	0.202500
H1721	H172	0.716300	0.153800	0.232200
H1731	H173	0.658200	0.060500	0.211900
H1741	H174	0.913200	0.963800	0.123700
H1751	H175	0.608800	0.968100	0.184500
H1761	H176	0.633200	0.873300	0.147100
H1771	H177	0.923900	0.854100	0.100900
H1781	H178	0.803700	0.822000	0.101300
H1791	H179	0.657600	0.902700	0.060800
H1801	H180	0.375200	0.085300	0.006100
H1811	H181	0.974600	0.837300	0.030800
H1821	H182	0.060500	0.151500	0.037000
C2371	C237	0.778600	0.882600	0.970800
C2381	C238	0.749100	0.894000	0.927600
C2391	C239	0.914900	0.901100	0.879700
C2401	C240	0.851600	0.814800	0.881300
C2411	C241	0.940300	0.812200	0.855100
C2421	C242	0.084300	0.884100	0.833600
C2431	C243	0.143600	0.848200	0.804800
C2441	C244	0.240700	0.869000	0.787400
C2451	C245	0.275400	0.924400	0.799200
C2461	C246	0.207200	0.955500	0.827700
C2471	C247	0.158700	0.046900	0.866100
C2481	C248	0.328500	0.044600	0.832300
C2491	C249	0.314800	0.096800	0.852800
C2501	C250	0.160200	0.142800	0.903300
C2511	C251	0.182800	0.132300	0.947100
C2521	C252	0.285300	0.108600	0.958800
C2531	C253	0.695200	0.898700	0.001100
C2541	C254	0.096500	0.147700	0.976700
C2551	C255	0.882400	0.859500	0.982600
C2561	C256	0.221400	0.117400	0.029200
C2571	C257	0.250900	0.106000	0.072400
C2581	C258	0.085100	0.098900	0.120300
C2591	C259	0.148400	0.185200	0.118700
C2601	C260	0.059700	0.187800	0.144900
C2611	C261	0.915700	0.115900	0.166400
C2621	C262	0.856400	0.151800	0.195200
C2631	C263	0.759300	0.131000	0.212600
C2641	C264	0.724600	0.075600	0.200800
C2651	C265	0.792800	0.044500	0.172300
C2661	C266	0.841300	0.953100	0.133900
C2671	C267	0.671500	0.955400	0.167700
C2681	C268	0.685200	0.903200	0.147200
C2691	C269	0.839800	0.857200	0.096700
C2701	C270	0.817200	0.867700	0.052900
C2711	C271	0.714700	0.891400	0.041200
C2721	C272	0.304800	0.101300	0.998900
C2731	C273	0.903500	0.852300	0.023300
C2741	C274	0.117600	0.140500	0.017400
N211	N21	0.836100	0.870700	0.896900
N221	N22	0.980300	0.866100	0.854600
N231	N23	0.113600	0.936800	0.845580
N241	N24	0.231200	0.014100	0.841300
N251	N25	0.208000	0.097100	0.873700
N261	N26	0.163900	0.129300	0.103100
N271	N27	0.019700	0.133900	0.145400
N281	N28	0.886400	0.063200	0.154420
N291	N29	0.768800	0.985900	0.158700
N301	N30	0.792000	0.902900	0.126300
H1831	H183	0.558800	0.338200	0.083500
H1841	H184	0.677300	0.305000	0.084500
H1851	H185	0.560900	0.441900	0.118200
H1861	H186	0.842600	0.350200	0.132900
H1871	H187	0.858900	0.437500	0.181700
H1881	H188	0.800200	0.524100	0.218600
H1891	H189	0.742000	0.613400	0.246600
H1901	H190	0.575900	0.654900	0.218700
H1911	H191	0.388000	0.542900	0.119200
H1921	H192	0.446500	0.696100	0.177000
H1931	H193	0.290300	0.702100	0.126300
H1941	H194	0.151900	0.617400	0.087200
H1951	H195	0.215500	0.559400	0.076900
H1961	H196	0.116200	0.587000	0.010200
H1971	H197	0.162900	0.607500	0.944700
H1981	H198	0.527000	0.329300	0.012100
H1991	H199	0.425200	0.650400	0.052500
H2001	H200	0.441200	0.661800	0.916500
H2011	H201	0.322700	0.695000	0.915500
H2021	H202	0.439100	0.558100	0.881800
H2031	H203	0.157400	0.649800	0.867100
H2041	H204	0.141100	0.562500	0.818300
H2051	H205	0.199800	0.475900	0.781400
H2061	H206	0.258000	0.386600	0.753400
H2071	H207	0.424100	0.345100	0.781300
H2081	H208	0.612000	0.457100	0.880800
H2091	H209	0.553500	0.303900	0.823000
H2101	H210	0.709700	0.297900	0.873700
H2111	H211	0.848100	0.382600	0.912800
H2121	H212	0.784500	0.440600	0.923100
H2131	H213	0.883800	0.413000	0.989800
H2141	H214	0.837100	0.392500	0.055300
H2151	H215	0.473000	0.670700	0.987900
H2161	H216	0.574800	0.349600	0.947500
C2751	C275	0.643700	0.341500	0.081800
C2761	C276	0.632400	0.430200	0.128000
C2771	C277	0.788500	0.379500	0.136400
C2781	C278	0.798300	0.427900	0.163100
C2791	C279	0.670600	0.514100	0.175700
C2801	C280	0.735400	0.541300	0.208300
C2811	C281	0.700900	0.594300	0.224700
C2821	C282	0.603000	0.619500	0.208100
C2831	C283	0.550800	0.588900	0.175700
C2841	C284	0.384200	0.581400	0.127100
C2851	C285	0.416400	0.666600	0.159000
C2861	C286	0.330100	0.669900	0.131500
C2871	C287	0.226900	0.599800	0.079700
C2881	C288	0.266500	0.616700	0.037900
C2891	C289	0.187800	0.603900	0.005600
C2901	C290	0.215800	0.616300	0.966100
C2911	C291	0.676300	0.358100	0.041000
C2921	C292	0.599100	0.346000	0.007900
C2931	C293	0.372500	0.641700	0.031000
C2941	C294	0.356300	0.658500	0.918200
C2951	C295	0.367600	0.569800	0.872000
C2961	C296	0.211500	0.620500	0.863600
C2971	C297	0.201700	0.572100	0.836900
C2981	C298	0.329400	0.485900	0.824300
C2991	C299	0.264600	0.458700	0.791700
C3001	C300	0.299100	0.405700	0.775300
C3011	C301	0.397000	0.380500	0.791900
C3021	C302	0.449200	0.411100	0.824300
C3031	C303	0.615800	0.418600	0.872900
C3041	C304	0.583600	0.333400	0.841000
C3051	C305	0.669900	0.330100	0.868500
C3061	C306	0.773100	0.400200	0.920300
C3071	C307	0.733500	0.383300	0.962100
C3081	C308	0.812200	0.396100	0.994400
C3091	C309	0.784200	0.383700	0.033900
C3101	C310	0.323700	0.641900	0.959000
C3111	C311	0.400900	0.654000	0.992100
C3121	C312	0.627500	0.358300	0.969000
N311	N31	0.685200	0.382300	0.116000
N321	N32	0.699300	0.459600	0.156800
N331	N33	0.578900	0.536800	0.159100
N341	N34	0.452400	0.610700	0.155500
N351	N35	0.312000	0.615900	0.112400
N361	N36	0.314800	0.617700	0.884000
N371	N37	0.300700	0.540400	0.843200
N381	N38	0.421100	0.463200	0.840900
N391	N39	0.547600	0.389300	0.844500
N401	N40	0.688000	0.384100	0.887600
