data_ZEFLAZ01_clean_PM
_symmetry_space_group_name_H-M	'P1'
_cell_length_a	14.853000
_cell_length_b	17.010000
_cell_length_c	14.538000
_cell_angle_alpha	90.000000
_cell_angle_beta	120.720000
_cell_angle_gamma	90.000000
_symmetry_Int_Tables_number 1

loop_
_symmetry_equiv_pos_as_xyz
'x,y,z'

loop_
_atom_site_label
_atom_site_type_symbol
_atom_site_fract_x
_atom_site_fract_y
_atom_site_fract_z
Br11	Br1	0.425020	0.893350	0.313460
Br21	Br2	0.330010	0.347820	0.111350
Co11	Co1	0.092210	0.120650	0.207850
N11	N1	0.176300	0.044500	0.163800
N21	N2	0.215700	0.205800	0.256000
O11	O1	0.170300	0.922300	0.864800
O21	O2	0.024100	0.963500	0.861000
O31	O3	0.510700	0.326600	0.551200
O41	O4	0.408300	0.240000	0.572600
H11	H1	0.046600	0.223500	0.311100
C11	C1	0.311500	0.949400	0.205600
C21	C2	0.262900	0.005400	0.235900
H21	H2	0.291800	0.016300	0.309800
C31	C3	0.134600	0.026000	0.059200
H31	H3	0.071600	0.051100	0.008000
C41	C4	0.179900	0.971900	0.023600
C51	C5	0.271600	0.932100	0.098300
H41	H4	0.304700	0.895100	0.076200
C61	C6	0.119700	0.951400	0.904400
C71	C7	0.314400	0.294600	0.217000
C81	C8	0.233700	0.242500	0.185000
H51	H5	0.189400	0.231900	0.110900
C91	C9	0.280600	0.218700	0.359600
H61	H6	0.268300	0.192800	0.410000
C101	C10	0.366300	0.269100	0.396600
C111	C11	0.384300	0.308200	0.323600
H71	H7	0.442200	0.342700	0.346300
C121	C12	0.435900	0.278900	0.517500
Br31	Br3	0.925020	0.393350	0.313460
Br41	Br4	0.830010	0.847820	0.111350
Co21	Co2	0.592210	0.620650	0.207850
N31	N3	0.676300	0.544500	0.163800
N41	N4	0.715700	0.705800	0.256000
O51	O5	0.670300	0.422300	0.864800
O61	O6	0.524100	0.463500	0.861000
O71	O7	0.010700	0.826600	0.551200
O81	O8	0.908300	0.740000	0.572600
H81	H8	0.546600	0.723500	0.311100
C131	C13	0.811500	0.449400	0.205600
C141	C14	0.762900	0.505400	0.235900
H91	H9	0.791800	0.516300	0.309800
C151	C15	0.634600	0.526000	0.059200
H101	H10	0.571600	0.551100	0.008000
C161	C16	0.679900	0.471900	0.023600
C171	C17	0.771600	0.432100	0.098300
H111	H11	0.804700	0.395100	0.076200
C181	C18	0.619700	0.451400	0.904400
C191	C19	0.814400	0.794600	0.217000
C201	C20	0.733700	0.742500	0.185000
H121	H12	0.689400	0.731900	0.110900
C211	C21	0.780600	0.718700	0.359600
H131	H13	0.768300	0.692800	0.410000
C221	C22	0.866300	0.769100	0.396600
C231	C23	0.884300	0.808200	0.323600
H141	H14	0.942200	0.842700	0.346300
C241	C24	0.935900	0.778900	0.517500
Br51	Br5	0.574980	0.893350	0.186540
Br61	Br6	0.669990	0.347820	0.388650
Co31	Co3	0.907790	0.120650	0.292150
N51	N5	0.823700	0.044500	0.336200
N61	N6	0.784300	0.205800	0.244000
O91	O9	0.829700	0.922300	0.635200
O101	O10	0.975900	0.963500	0.639000
O111	O11	0.489300	0.326600	0.948800
O121	O12	0.591700	0.240000	0.927400
H151	H15	0.953400	0.223500	0.188900
C251	C25	0.688500	0.949400	0.294400
C261	C26	0.737100	0.005400	0.264100
H161	H16	0.708200	0.016300	0.190200
C271	C27	0.865400	0.026000	0.440800
H171	H17	0.928400	0.051100	0.492000
C281	C28	0.820100	0.971900	0.476400
C291	C29	0.728400	0.932100	0.401700
H181	H18	0.695300	0.895100	0.423800
C301	C30	0.880300	0.951400	0.595600
C311	C31	0.685600	0.294600	0.283000
C321	C32	0.766300	0.242500	0.315000
H191	H19	0.810600	0.231900	0.389100
C331	C33	0.719400	0.218700	0.140400
H201	H20	0.731700	0.192800	0.090000
C341	C34	0.633700	0.269100	0.103400
C351	C35	0.615700	0.308200	0.176400
H211	H21	0.557800	0.342700	0.153700
C361	C36	0.564100	0.278900	0.982500
Br71	Br7	0.074980	0.393350	0.186540
Br81	Br8	0.169990	0.847820	0.388650
Co41	Co4	0.407790	0.620650	0.292150
N71	N7	0.323700	0.544500	0.336200
N81	N8	0.284300	0.705800	0.244000
O131	O13	0.329700	0.422300	0.635200
O141	O14	0.475900	0.463500	0.639000
O151	O15	0.989300	0.826600	0.948800
O161	O16	0.091700	0.740000	0.927400
H221	H22	0.453400	0.723500	0.188900
C371	C37	0.188500	0.449400	0.294400
C381	C38	0.237100	0.505400	0.264100
H231	H23	0.208200	0.516300	0.190200
C391	C39	0.365400	0.526000	0.440800
H241	H24	0.428400	0.551100	0.492000
C401	C40	0.320100	0.471900	0.476400
C411	C41	0.228400	0.432100	0.401700
H251	H25	0.195300	0.395100	0.423800
C421	C42	0.380300	0.451400	0.595600
C431	C43	0.185600	0.794600	0.283000
C441	C44	0.266300	0.742500	0.315000
H261	H26	0.310600	0.731900	0.389100
C451	C45	0.219400	0.718700	0.140400
H271	H27	0.231700	0.692800	0.090000
C461	C46	0.133700	0.769100	0.103400
C471	C47	0.115700	0.808200	0.176400
H281	H28	0.057800	0.842700	0.153700
C481	C48	0.064100	0.778900	0.982500
Br91	Br9	0.574980	0.106650	0.686540
Br101	Br10	0.669990	0.652180	0.888650
Co51	Co5	0.907790	0.879350	0.792150
N91	N9	0.823700	0.955500	0.836200
N101	N10	0.784300	0.794200	0.744000
O171	O17	0.829700	0.077700	0.135200
O181	O18	0.975900	0.036500	0.139000
O191	O19	0.489300	0.673400	0.448800
O201	O20	0.591700	0.760000	0.427400
H291	H29	0.953400	0.776500	0.688900
C491	C49	0.688500	0.050600	0.794400
C501	C50	0.737100	0.994600	0.764100
H301	H30	0.708200	0.983700	0.690200
C511	C51	0.865400	0.974000	0.940800
H311	H31	0.928400	0.948900	0.992000
C521	C52	0.820100	0.028100	0.976400
C531	C53	0.728400	0.067900	0.901700
H321	H32	0.695300	0.104900	0.923800
C541	C54	0.880300	0.048600	0.095600
C551	C55	0.685600	0.705400	0.783000
C561	C56	0.766300	0.757500	0.815000
H331	H33	0.810600	0.768100	0.889100
C571	C57	0.719400	0.781300	0.640400
H341	H34	0.731700	0.807200	0.590000
C581	C58	0.633700	0.730900	0.603400
C591	C59	0.615700	0.691800	0.676400
H351	H35	0.557800	0.657300	0.653700
C601	C60	0.564100	0.721100	0.482500
Br111	Br11	0.074980	0.606650	0.686540
Br121	Br12	0.169990	0.152180	0.888650
Co61	Co6	0.407790	0.379350	0.792150
N111	N11	0.323700	0.455500	0.836200
N121	N12	0.284300	0.294200	0.744000
O211	O21	0.329700	0.577700	0.135200
O221	O22	0.475900	0.536500	0.139000
O231	O23	0.989300	0.173400	0.448800
O241	O24	0.091700	0.260000	0.427400
H361	H36	0.453400	0.276500	0.688900
C611	C61	0.188500	0.550600	0.794400
C621	C62	0.237100	0.494600	0.764100
H371	H37	0.208200	0.483700	0.690200
C631	C63	0.365400	0.474000	0.940800
H381	H38	0.428400	0.448900	0.992000
C641	C64	0.320100	0.528100	0.976400
C651	C65	0.228400	0.567900	0.901700
H391	H39	0.195300	0.604900	0.923800
C661	C66	0.380300	0.548600	0.095600
C671	C67	0.185600	0.205400	0.783000
C681	C68	0.266300	0.257500	0.815000
H401	H40	0.310600	0.268100	0.889100
C691	C69	0.219400	0.281300	0.640400
H411	H41	0.231700	0.307200	0.590000
C701	C70	0.133700	0.230900	0.603400
C711	C71	0.115700	0.191800	0.676400
H421	H42	0.057800	0.157300	0.653700
C721	C72	0.064100	0.221100	0.482500
Br131	Br13	0.425020	0.106650	0.813460
Br141	Br14	0.330010	0.652180	0.611350
Co71	Co7	0.092210	0.879350	0.707850
N131	N13	0.176300	0.955500	0.663800
N141	N14	0.215700	0.794200	0.756000
O251	O25	0.170300	0.077700	0.364800
O261	O26	0.024100	0.036500	0.361000
O271	O27	0.510700	0.673400	0.051200
O281	O28	0.408300	0.760000	0.072600
H431	H43	0.046600	0.776500	0.811100
C731	C73	0.311500	0.050600	0.705600
C741	C74	0.262900	0.994600	0.735900
H441	H44	0.291800	0.983700	0.809800
C751	C75	0.134600	0.974000	0.559200
H451	H45	0.071600	0.948900	0.508000
C761	C76	0.179900	0.028100	0.523600
C771	C77	0.271600	0.067900	0.598300
H461	H46	0.304700	0.104900	0.576200
C781	C78	0.119700	0.048600	0.404400
C791	C79	0.314400	0.705400	0.717000
C801	C80	0.233700	0.757500	0.685000
H471	H47	0.189400	0.768100	0.610900
C811	C81	0.280600	0.781300	0.859600
H481	H48	0.268300	0.807200	0.910000
C821	C82	0.366300	0.730900	0.896600
C831	C83	0.384300	0.691800	0.823600
H491	H49	0.442200	0.657300	0.846300
C841	C84	0.435900	0.721100	0.017500
Br151	Br15	0.925020	0.606650	0.813460
Br161	Br16	0.830010	0.152180	0.611350
Co81	Co8	0.592210	0.379350	0.707850
N151	N15	0.676300	0.455500	0.663800
N161	N16	0.715700	0.294200	0.756000
O291	O29	0.670300	0.577700	0.364800
O301	O30	0.524100	0.536500	0.361000
O311	O31	0.010700	0.173400	0.051200
O321	O32	0.908300	0.260000	0.072600
H501	H50	0.546600	0.276500	0.811100
C851	C85	0.811500	0.550600	0.705600
C861	C86	0.762900	0.494600	0.735900
H511	H51	0.791800	0.483700	0.809800
C871	C87	0.634600	0.474000	0.559200
H521	H52	0.571600	0.448900	0.508000
C881	C88	0.679900	0.528100	0.523600
C891	C89	0.771600	0.567900	0.598300
H531	H53	0.804700	0.604900	0.576200
C901	C90	0.619700	0.548600	0.404400
C911	C91	0.814400	0.205400	0.717000
C921	C92	0.733700	0.257500	0.685000
H541	H54	0.689400	0.268100	0.610900
C931	C93	0.780600	0.281300	0.859600
H551	H55	0.768300	0.307200	0.910000
C941	C94	0.866300	0.230900	0.896600
C951	C95	0.884300	0.191800	0.823600
H561	H56	0.942200	0.157300	0.846300
C961	C96	0.935900	0.221100	0.017500
O331	O33	0.000000	0.189200	0.250000
O341	O34	0.500000	0.689200	0.250000
O351	O35	0.000000	0.810800	0.750000
O361	O36	0.500000	0.310800	0.750000
