data_ZEFVIR_clean_PM
_symmetry_space_group_name_H-M	'P1'
_cell_length_a	7.657500
_cell_length_b	10.477000
_cell_length_c	30.456000
_cell_angle_alpha	99.060000
_cell_angle_beta	90.000000
_cell_angle_gamma	90.000000
_symmetry_Int_Tables_number 1

loop_
_symmetry_equiv_pos_as_xyz
'x,y,z'

loop_
_atom_site_label
_atom_site_type_symbol
_atom_site_fract_x
_atom_site_fract_y
_atom_site_fract_z
Pr11	Pr1	0.371530	0.552070	0.768210
Pr21	Pr2	0.871530	0.447930	0.731790
Pr31	Pr3	0.628470	0.447930	0.231790
Pr41	Pr4	0.128470	0.552070	0.268210
Co11	Co1	0.445810	0.713540	0.130050
Co21	Co2	0.945810	0.286460	0.369950
Co31	Co3	0.554190	0.286460	0.869950
Co41	Co4	0.054190	0.713540	0.630050
Co51	Co5	0.500000	0.000000	0.000000
Co61	Co6	0.000000	0.000000	0.500000
H11	H1	0.556200	0.756400	0.918300
H21	H2	0.150200	0.798300	0.878000
H31	H3	0.877700	0.127400	0.985600
H41	H4	0.818500	0.077100	0.216900
H51	H5	0.424900	0.023000	0.186100
H61	H6	0.028600	0.688800	0.124300
H71	H7	0.105900	0.035600	0.938000
H81	H8	0.812900	0.833800	0.160300
H91	H9	0.056200	0.243600	0.581700
H101	H10	0.650200	0.201700	0.622000
H111	H11	0.377700	0.872600	0.514400
H121	H12	0.318500	0.922900	0.283100
H131	H13	0.924900	0.977000	0.313900
H141	H14	0.528600	0.311200	0.375700
H151	H15	0.605900	0.964400	0.562000
H161	H16	0.312900	0.166200	0.339700
H171	H17	0.443800	0.243600	0.081700
H181	H18	0.849800	0.201700	0.122000
H191	H19	0.122300	0.872600	0.014400
H201	H20	0.181500	0.922900	0.783100
H211	H21	0.575100	0.977000	0.813900
H221	H22	0.971400	0.311200	0.875700
H231	H23	0.894100	0.964400	0.062000
H241	H24	0.187100	0.166200	0.839700
H251	H25	0.943800	0.756400	0.418300
H261	H26	0.349800	0.798300	0.378000
H271	H27	0.622300	0.127400	0.485600
H281	H28	0.681500	0.077100	0.716900
H291	H29	0.075100	0.023000	0.686100
H301	H30	0.471400	0.688800	0.624300
H311	H31	0.394100	0.035600	0.438000
H321	H32	0.687100	0.833800	0.660300
C11	C1	0.470300	0.790200	0.044550
C21	C2	0.567700	0.894900	0.077080
C31	C3	0.651600	0.555300	0.861530
C41	C4	0.755000	0.673200	0.879450
C51	C5	0.675300	0.764600	0.910470
C61	C6	0.775000	0.869200	0.929950
C71	C7	0.949200	0.882000	0.916600
C81	C8	0.031500	0.789600	0.886060
C91	C9	0.932700	0.684100	0.867790
C101	C10	0.013700	0.584100	0.833630
C111	C11	0.871300	0.047600	0.965950
C121	C12	0.998800	0.261600	0.266940
C131	C13	0.060400	0.156700	0.230440
C141	C14	0.940100	0.066100	0.211420
C151	C15	0.005300	0.958000	0.183930
C161	C16	0.184500	0.938800	0.175330
C171	C17	0.303900	0.033100	0.192670
C181	C18	0.241900	0.142300	0.219840
C191	C19	0.368900	0.247300	0.234950
C201	C20	0.051700	0.770700	0.141620
C211	C21	0.970300	0.209800	0.455450
C221	C22	0.067700	0.105100	0.422920
C231	C23	0.151600	0.444700	0.638470
C241	C24	0.255000	0.326800	0.620550
C251	C25	0.175300	0.235400	0.589530
C261	C26	0.275000	0.130800	0.570050
C271	C27	0.449200	0.118000	0.583400
C281	C28	0.531500	0.210400	0.613940
C291	C29	0.432700	0.315900	0.632210
C301	C30	0.513700	0.415900	0.666370
C311	C31	0.371300	0.952400	0.534050
C321	C32	0.498800	0.738400	0.233060
C331	C33	0.560400	0.843300	0.269560
C341	C34	0.440100	0.933900	0.288580
C351	C35	0.505300	0.042000	0.316070
C361	C36	0.684500	0.061200	0.324670
C371	C37	0.803900	0.966900	0.307330
C381	C38	0.741900	0.857700	0.280160
C391	C39	0.868900	0.752700	0.265050
C401	C40	0.551700	0.229300	0.358380
C411	C41	0.529700	0.209800	0.955450
C421	C42	0.432300	0.105100	0.922920
C431	C43	0.348400	0.444700	0.138470
C441	C44	0.245000	0.326800	0.120550
C451	C45	0.324700	0.235400	0.089530
C461	C46	0.225000	0.130800	0.070050
C471	C47	0.050800	0.118000	0.083400
C481	C48	0.968500	0.210400	0.113940
C491	C49	0.067300	0.315900	0.132210
C501	C50	0.986300	0.415900	0.166370
C511	C51	0.128700	0.952400	0.034050
C521	C52	0.001200	0.738400	0.733060
C531	C53	0.939600	0.843300	0.769560
C541	C54	0.059900	0.933900	0.788580
C551	C55	0.994700	0.042000	0.816070
C561	C56	0.815500	0.061200	0.824670
C571	C57	0.696100	0.966900	0.807330
C581	C58	0.758100	0.857700	0.780160
C591	C59	0.631100	0.752700	0.765050
C601	C60	0.948300	0.229300	0.858380
C611	C61	0.029700	0.790200	0.544550
C621	C62	0.932300	0.894900	0.577080
C631	C63	0.848400	0.555300	0.361530
C641	C64	0.745000	0.673200	0.379450
C651	C65	0.824700	0.764600	0.410470
C661	C66	0.725000	0.869200	0.429950
C671	C67	0.550800	0.882000	0.416600
C681	C68	0.468500	0.789600	0.386060
C691	C69	0.567300	0.684100	0.367790
C701	C70	0.486300	0.584100	0.333630
C711	C71	0.628700	0.047600	0.465950
C721	C72	0.501200	0.261600	0.766940
C731	C73	0.439600	0.156700	0.730440
C741	C74	0.559900	0.066100	0.711420
C751	C75	0.494700	0.958000	0.683930
C761	C76	0.315500	0.938800	0.675330
C771	C77	0.196100	0.033100	0.692670
C781	C78	0.258100	0.142300	0.719840
C791	C79	0.131100	0.247300	0.734950
C801	C80	0.448300	0.770700	0.641620
N11	N1	0.731700	0.973900	0.961700
N21	N2	0.003100	0.999300	0.939950
N31	N3	0.210300	0.819000	0.148630
N41	N4	0.925900	0.849300	0.161490
N51	N5	0.231700	0.026100	0.538300
N61	N6	0.503100	0.000700	0.560050
N71	N7	0.710300	0.181000	0.351370
N81	N8	0.425900	0.150700	0.338510
N91	N9	0.268300	0.026100	0.038300
N101	N10	0.996900	0.000700	0.060050
N111	N11	0.789700	0.181000	0.851370
N121	N12	0.074100	0.150700	0.838510
N131	N13	0.768300	0.973900	0.461700
N141	N14	0.496900	0.999300	0.439950
N151	N15	0.289700	0.819000	0.648630
N161	N16	0.574100	0.849300	0.661490
O11	O1	0.629800	0.989600	0.060990
O21	O2	0.464400	0.803400	0.004150
O31	O3	0.580300	0.877500	0.116420
O41	O4	0.405200	0.699600	0.061080
O51	O5	0.686500	0.455100	0.877440
O61	O6	0.529000	0.566300	0.834920
O71	O7	0.914300	0.508500	0.809190
O81	O8	0.178000	0.582400	0.830880
O91	O9	0.039600	0.247000	0.305150
O101	O10	0.910700	0.356800	0.257020
O111	O11	0.314400	0.361700	0.249430
O121	O12	0.530600	0.225600	0.231030
O131	O13	0.129800	0.010400	0.439010
O141	O14	0.964400	0.196600	0.495850
O151	O15	0.080300	0.122500	0.383580
O161	O16	0.905200	0.300400	0.438920
O171	O17	0.186500	0.544900	0.622560
O181	O18	0.029000	0.433700	0.665080
O191	O19	0.414300	0.491500	0.690810
O201	O20	0.678000	0.417600	0.669120
O211	O21	0.539600	0.753000	0.194850
O221	O22	0.410700	0.643200	0.242980
O231	O23	0.814400	0.638300	0.250570
O241	O24	0.030600	0.774400	0.268970
O251	O25	0.370200	0.010400	0.939010
O261	O26	0.535600	0.196600	0.995850
O271	O27	0.419700	0.122500	0.883580
O281	O28	0.594800	0.300400	0.938920
O291	O29	0.313500	0.544900	0.122560
O301	O30	0.471000	0.433700	0.165080
O311	O31	0.085700	0.491500	0.190810
O321	O32	0.822000	0.417600	0.169120
O331	O33	0.960400	0.753000	0.694850
O341	O34	0.089300	0.643200	0.742980
O351	O35	0.685600	0.638300	0.750570
O361	O36	0.469400	0.774400	0.768970
O371	O37	0.870200	0.989600	0.560990
O381	O38	0.035600	0.803400	0.504150
O391	O39	0.919700	0.877500	0.616420
O401	O40	0.094800	0.699600	0.561080
O411	O41	0.813500	0.455100	0.377440
O421	O42	0.971000	0.566300	0.334920
O431	O43	0.585700	0.508500	0.309190
O441	O44	0.322000	0.582400	0.330880
O451	O45	0.460400	0.247000	0.805150
O461	O46	0.589300	0.356800	0.757020
O471	O47	0.185600	0.361700	0.749430
O481	O48	0.969400	0.225600	0.731030
