data_ZEFVEN_clean_PM
_symmetry_space_group_name_H-M	'P1'
_cell_length_a	7.593900
_cell_length_b	10.446000
_cell_length_c	30.513000
_cell_angle_alpha	99.000000
_cell_angle_beta	90.000000
_cell_angle_gamma	90.000000
_symmetry_Int_Tables_number 1

loop_
_symmetry_equiv_pos_as_xyz
'x,y,z'

loop_
_atom_site_label
_atom_site_type_symbol
_atom_site_fract_x
_atom_site_fract_y
_atom_site_fract_z
Sm11	Sm1	0.369440	0.550750	0.768050
Sm21	Sm2	0.869440	0.449250	0.731950
Sm31	Sm3	0.630560	0.449250	0.231950
Sm41	Sm4	0.130560	0.550750	0.268050
Co11	Co1	0.550680	0.286110	0.869900
Co21	Co2	0.050680	0.713890	0.630100
Co31	Co3	0.449320	0.713890	0.130100
Co41	Co4	0.949320	0.286110	0.369900
Co51	Co5	0.500000	0.000000	0.000000
Co61	Co6	0.000000	0.000000	0.500000
H11	H1	0.550800	0.755400	0.917700
H21	H2	0.150700	0.798000	0.877200
H31	H3	0.878800	0.124800	0.985700
H41	H4	0.181600	0.921800	0.782400
H51	H5	0.570300	0.973200	0.814200
H61	H6	0.968700	0.310200	0.875500
H71	H7	0.108200	0.031100	0.937800
H81	H8	0.185200	0.166100	0.839200
H91	H9	0.050800	0.244600	0.582300
H101	H10	0.650700	0.202000	0.622800
H111	H11	0.378800	0.875200	0.514300
H121	H12	0.681600	0.078200	0.717600
H131	H13	0.070300	0.026800	0.685800
H141	H14	0.468700	0.689800	0.624500
H151	H15	0.608200	0.968900	0.562200
H161	H16	0.685200	0.833900	0.660800
H171	H17	0.449200	0.244600	0.082300
H181	H18	0.849300	0.202000	0.122800
H191	H19	0.121200	0.875200	0.014300
H201	H20	0.818400	0.078200	0.217600
H211	H21	0.429700	0.026800	0.185800
H221	H22	0.031300	0.689800	0.124500
H231	H23	0.891800	0.968900	0.062200
H241	H24	0.814800	0.833900	0.160800
H251	H25	0.949200	0.755400	0.417700
H261	H26	0.349300	0.798000	0.377200
H271	H27	0.621200	0.124800	0.485700
H281	H28	0.318400	0.921800	0.282400
H291	H29	0.929700	0.973200	0.314200
H301	H30	0.531300	0.310200	0.375500
H311	H31	0.391800	0.031100	0.437800
H321	H32	0.314800	0.166100	0.339200
C11	C1	0.430600	0.105300	0.923010
C21	C2	0.529100	0.210300	0.955060
C31	C3	0.646500	0.554300	0.860050
C41	C4	0.751700	0.672800	0.878010
C51	C5	0.670600	0.763500	0.909600
C61	C6	0.774300	0.867200	0.928940
C71	C7	0.947900	0.880900	0.915820
C81	C8	0.030900	0.789000	0.885170
C91	C9	0.931500	0.683800	0.866640
C101	C10	0.010500	0.585200	0.831860
C111	C11	0.871800	0.045200	0.965840
C121	C12	0.999700	0.736400	0.732770
C131	C13	0.937600	0.841000	0.769530
C141	C14	0.059000	0.932500	0.788110
C151	C15	0.992800	0.040900	0.815530
C161	C16	0.811900	0.059500	0.824410
C171	C17	0.692100	0.964000	0.807390
C181	C18	0.755500	0.854700	0.780030
C191	C19	0.626900	0.749600	0.765070
C201	C20	0.945700	0.228200	0.858160
C211	C21	0.930600	0.894700	0.576990
C221	C22	0.029100	0.789700	0.544940
C231	C23	0.146500	0.445700	0.639950
C241	C24	0.251700	0.327200	0.621990
C251	C25	0.170600	0.236500	0.590400
C261	C26	0.274300	0.132800	0.571060
C271	C27	0.447900	0.119100	0.584180
C281	C28	0.530900	0.211000	0.614830
C291	C29	0.431500	0.316200	0.633360
C301	C30	0.510500	0.414800	0.668140
C311	C31	0.371800	0.954800	0.534160
C321	C32	0.499700	0.263600	0.767230
C331	C33	0.437600	0.159000	0.730470
C341	C34	0.559000	0.067500	0.711890
C351	C35	0.492800	0.959100	0.684470
C361	C36	0.311900	0.940500	0.675590
C371	C37	0.192100	0.036000	0.692610
C381	C38	0.255500	0.145300	0.719970
C391	C39	0.126900	0.250400	0.734930
C401	C40	0.445700	0.771800	0.641840
C411	C41	0.569400	0.894700	0.076990
C421	C42	0.470900	0.789700	0.044940
C431	C43	0.353500	0.445700	0.139950
C441	C44	0.248300	0.327200	0.121990
C451	C45	0.329400	0.236500	0.090400
C461	C46	0.225700	0.132800	0.071060
C471	C47	0.052100	0.119100	0.084180
C481	C48	0.969100	0.211000	0.114830
C491	C49	0.068500	0.316200	0.133360
C501	C50	0.989500	0.414800	0.168140
C511	C51	0.128200	0.954800	0.034160
C521	C52	0.000300	0.263600	0.267230
C531	C53	0.062400	0.159000	0.230470
C541	C54	0.941000	0.067500	0.211890
C551	C55	0.007200	0.959100	0.184470
C561	C56	0.188100	0.940500	0.175590
C571	C57	0.307900	0.036000	0.192610
C581	C58	0.244500	0.145300	0.219970
C591	C59	0.373100	0.250400	0.234930
C601	C60	0.054300	0.771800	0.141840
C611	C61	0.069400	0.105300	0.423010
C621	C62	0.970900	0.210300	0.455060
C631	C63	0.853500	0.554300	0.360050
C641	C64	0.748300	0.672800	0.378010
C651	C65	0.829400	0.763500	0.409600
C661	C66	0.725700	0.867200	0.428940
C671	C67	0.552100	0.880900	0.415820
C681	C68	0.469100	0.789000	0.385170
C691	C69	0.568500	0.683800	0.366640
C701	C70	0.489500	0.585200	0.331860
C711	C71	0.628200	0.045200	0.465840
C721	C72	0.500300	0.736400	0.232770
C731	C73	0.562400	0.841000	0.269530
C741	C74	0.441000	0.932500	0.288110
C751	C75	0.507200	0.040900	0.315530
C761	C76	0.688100	0.059500	0.324410
C771	C77	0.807900	0.964000	0.307390
C781	C78	0.744500	0.854700	0.280030
C791	C79	0.873100	0.749600	0.265070
C801	C80	0.554300	0.228200	0.358160
N11	N1	0.731600	0.971300	0.961210
N21	N2	0.003700	0.995900	0.939530
N31	N3	0.787600	0.179000	0.851150
N41	N4	0.071300	0.150100	0.838120
N51	N5	0.231600	0.028700	0.538790
N61	N6	0.503700	0.004100	0.560470
N71	N7	0.287600	0.821000	0.648850
N81	N8	0.571300	0.849900	0.661880
N91	N9	0.268400	0.028700	0.038790
N101	N10	0.996300	0.004100	0.060470
N111	N11	0.212400	0.821000	0.148850
N121	N12	0.928700	0.849900	0.161880
N131	N13	0.768400	0.971300	0.461210
N141	N14	0.496300	0.995900	0.439530
N151	N15	0.712400	0.179000	0.351150
N161	N16	0.428700	0.150100	0.338120
O11	O1	0.370000	0.009400	0.939080
O21	O2	0.536100	0.196500	0.995400
O31	O3	0.416500	0.121800	0.883780
O41	O4	0.593200	0.300400	0.938670
O51	O5	0.682700	0.454600	0.876400
O61	O6	0.524000	0.565400	0.833700
O71	O7	0.175700	0.582100	0.828680
O81	O8	0.908900	0.508900	0.807810
O91	O9	0.958100	0.752900	0.694890
O101	O10	0.087600	0.640600	0.741980
O111	O11	0.683300	0.635600	0.750360
O121	O12	0.464200	0.770200	0.769360
O131	O13	0.870000	0.990600	0.560920
O141	O14	0.036100	0.803500	0.504600
O151	O15	0.916500	0.878200	0.616220
O161	O16	0.093200	0.699600	0.561330
O171	O17	0.182700	0.545400	0.623600
O181	O18	0.024000	0.434600	0.666300
O191	O19	0.675700	0.417900	0.671320
O201	O20	0.408900	0.491100	0.692190
O211	O21	0.458100	0.247100	0.805110
O221	O22	0.587600	0.359400	0.758020
O231	O23	0.183300	0.364400	0.749640
O241	O24	0.964200	0.229800	0.730640
O251	O25	0.630000	0.990600	0.060920
O261	O26	0.463900	0.803500	0.004600
O271	O27	0.583500	0.878200	0.116220
O281	O28	0.406800	0.699600	0.061330
O291	O29	0.317300	0.545400	0.123600
O301	O30	0.476000	0.434600	0.166300
O311	O31	0.824300	0.417900	0.171320
O321	O32	0.091100	0.491100	0.192190
O331	O33	0.041900	0.247100	0.305110
O341	O34	0.912400	0.359400	0.258020
O351	O35	0.316700	0.364400	0.249640
O361	O36	0.535800	0.229800	0.230640
O371	O37	0.130000	0.009400	0.439080
O381	O38	0.963900	0.196500	0.495400
O391	O39	0.083500	0.121800	0.383780
O401	O40	0.906800	0.300400	0.438670
O411	O41	0.817300	0.454600	0.376400
O421	O42	0.976000	0.565400	0.333700
O431	O43	0.324300	0.582100	0.328680
O441	O44	0.591100	0.508900	0.307810
O451	O45	0.541900	0.752900	0.194890
O461	O46	0.412400	0.640600	0.241980
O471	O47	0.816700	0.635600	0.250360
O481	O48	0.035800	0.770200	0.269360
