data_ZEGSUB_clean_PM
_symmetry_space_group_name_H-M	'P1'
_cell_length_a	15.854600
_cell_length_b	22.061100
_cell_length_c	22.061100
_cell_angle_alpha	82.581200
_cell_angle_beta	68.940700
_cell_angle_gamma	68.940700
_symmetry_Int_Tables_number 1

loop_
_symmetry_equiv_pos_as_xyz
'x,y,z'

loop_
_atom_site_label
_atom_site_type_symbol
_atom_site_fract_x
_atom_site_fract_y
_atom_site_fract_z
Ca11	Ca1	0.852560	0.072140	0.072140
Ca21	Ca2	0.093420	0.036280	0.036280
Ca31	Ca3	0.496840	0.427860	0.427860
Ca41	Ca4	0.665980	0.463720	0.463720
Ca51	Ca5	0.424700	0.927860	0.572140
Ca61	Ca6	0.629700	0.963720	0.536280
Ca71	Ca7	0.424700	0.572140	0.927860
Ca81	Ca8	0.629700	0.536280	0.963720
Ca91	Ca9	0.503160	0.572140	0.572140
Ca101	Ca10	0.334020	0.536280	0.536280
Ca111	Ca11	0.147440	0.927860	0.927860
Ca121	Ca12	0.906580	0.963720	0.963720
Ca131	Ca13	0.575300	0.072140	0.427860
Ca141	Ca14	0.370300	0.036280	0.463720
Ca151	Ca15	0.575300	0.427860	0.072140
Ca161	Ca16	0.370300	0.463720	0.036280
Ca171	Ca17	0.686300	0.127400	0.250000
Ca181	Ca18	0.563700	0.372600	0.250000
Ca191	Ca19	0.436300	0.750000	0.627400
Ca201	Ca20	0.313700	0.750000	0.872600
Ca211	Ca21	0.313700	0.872600	0.750000
Ca221	Ca22	0.436300	0.627400	0.750000
Ca231	Ca23	0.563700	0.250000	0.372600
Ca241	Ca24	0.686300	0.250000	0.127400
H11	H1	0.802000	0.985900	0.298700
H21	H2	0.830560	0.038520	0.320560
H31	H3	0.982520	0.933850	0.405110
H41	H4	0.941270	0.006930	0.385730
H51	H5	0.101580	0.960000	0.316000
H61	H6	0.998500	0.042130	0.269270
H71	H7	0.075300	0.991220	0.215780
H81	H8	0.030020	0.905080	0.180880
H91	H9	0.924970	0.903230	0.213030
H101	H10	0.868000	0.867800	0.329400
H111	H11	0.937200	0.847960	0.370240
H121	H12	0.140350	0.874150	0.246350
H131	H13	0.105100	0.852010	0.318990
H141	H14	0.028450	0.821950	0.259950
H151	H15	0.586600	0.514100	0.201300
H161	H16	0.689640	0.461480	0.179440
H171	H17	0.821480	0.566150	0.094890
H181	H18	0.833930	0.493070	0.114270
H191	H19	0.877580	0.540000	0.184000
H201	H20	0.809900	0.457870	0.230730
H211	H21	0.782300	0.508780	0.284220
H221	H22	0.615980	0.594920	0.319120
H231	H23	0.541230	0.596770	0.286970
H241	H24	0.565200	0.632200	0.170600
H251	H25	0.655400	0.652040	0.129760
H261	H26	0.760850	0.625850	0.253650
H271	H27	0.776100	0.647990	0.181010
H281	H28	0.610350	0.678050	0.240050
H291	H29	0.600700	0.701300	0.485900
H301	H30	0.651120	0.679440	0.538520
H311	H31	0.887630	0.594890	0.433850
H321	H32	0.827000	0.614270	0.506930
H331	H33	0.917580	0.684000	0.460000
H341	H34	0.767770	0.730730	0.542130
H351	H35	0.791080	0.784220	0.491220
H361	H36	0.710900	0.819120	0.405080
H371	H37	0.638000	0.786970	0.403230
H381	H38	0.697400	0.670600	0.367800
H391	H39	0.807440	0.629760	0.347960
H401	H40	0.886700	0.753650	0.374150
H411	H41	0.924090	0.681010	0.352010
H421	H42	0.788400	0.740050	0.321950
H431	H43	0.287900	0.798700	0.014100
H441	H44	0.369080	0.820560	0.961480
H451	H45	0.416370	0.905110	0.066150
H461	H46	0.448200	0.885730	0.993070
H471	H47	0.561580	0.816000	0.040000
H481	H48	0.540630	0.769270	0.957870
H491	H49	0.566520	0.715780	0.008780
H501	H50	0.435100	0.680880	0.094920
H511	H51	0.328200	0.713030	0.096770
H521	H52	0.235800	0.829400	0.132200
H531	H53	0.285160	0.870240	0.152040
H541	H54	0.514500	0.746350	0.125850
H551	H55	0.457110	0.818990	0.147990
H561	H56	0.350400	0.759950	0.178050
H571	H57	0.413400	0.798700	0.485900
H581	H58	0.310360	0.820560	0.538520
H591	H59	0.178520	0.905110	0.433850
H601	H60	0.166070	0.885730	0.506930
H611	H61	0.122420	0.816000	0.460000
H621	H62	0.190100	0.769270	0.542130
H631	H63	0.217700	0.715780	0.491220
H641	H64	0.384020	0.680880	0.405080
H651	H65	0.458770	0.713030	0.403230
H661	H66	0.434800	0.829400	0.367800
H671	H67	0.344600	0.870240	0.347960
H681	H68	0.239150	0.746350	0.374150
H691	H69	0.223900	0.818990	0.352010
H701	H70	0.389650	0.759950	0.321950
H711	H71	0.198000	0.701300	0.014100
H721	H72	0.169440	0.679440	0.961480
H731	H73	0.017480	0.594890	0.066150
H741	H74	0.058730	0.614270	0.993070
H751	H75	0.898420	0.684000	0.040000
H761	H76	0.001500	0.730730	0.957870
H771	H77	0.924700	0.784220	0.008780
H781	H78	0.969980	0.819120	0.094920
H791	H79	0.075030	0.786970	0.096770
H801	H80	0.132000	0.670600	0.132200
H811	H81	0.062800	0.629760	0.152040
H821	H82	0.859650	0.753650	0.125850
H831	H83	0.894900	0.681010	0.147990
H841	H84	0.971550	0.740050	0.178050
H851	H85	0.712100	0.985900	0.201300
H861	H86	0.630920	0.038520	0.179440
H871	H87	0.583630	0.933850	0.094890
H881	H88	0.551800	0.006930	0.114270
H891	H89	0.438420	0.960000	0.184000
H901	H90	0.459370	0.042130	0.230730
H911	H91	0.433480	0.991220	0.284220
H921	H92	0.564900	0.905080	0.319120
H931	H93	0.671800	0.903230	0.286970
H941	H94	0.764200	0.867800	0.170600
H951	H95	0.714840	0.847960	0.129760
H961	H96	0.485500	0.874150	0.253650
H971	H97	0.542890	0.852010	0.181010
H981	H98	0.649600	0.821950	0.240050
H991	H99	0.399300	0.514100	0.298700
H1001	H100	0.348880	0.461480	0.320560
H1011	H101	0.112370	0.566150	0.405110
H1021	H102	0.173000	0.493070	0.385730
H1031	H103	0.082420	0.540000	0.316000
H1041	H104	0.232230	0.457870	0.269270
H1051	H105	0.208920	0.508780	0.215780
H1061	H106	0.289100	0.594920	0.180880
H1071	H107	0.362000	0.596770	0.213030
H1081	H108	0.302600	0.632200	0.329400
H1091	H109	0.192560	0.652040	0.370240
H1101	H110	0.113300	0.625850	0.246350
H1111	H111	0.075910	0.647990	0.318990
H1121	H112	0.211600	0.678050	0.259950
H1131	H113	0.198000	0.014100	0.701300
H1141	H114	0.169440	0.961480	0.679440
H1151	H115	0.017480	0.066150	0.594890
H1161	H116	0.058730	0.993070	0.614270
H1171	H117	0.898420	0.040000	0.684000
H1181	H118	0.001500	0.957870	0.730730
H1191	H119	0.924700	0.008780	0.784220
H1201	H120	0.969980	0.094920	0.819120
H1211	H121	0.075030	0.096770	0.786970
H1221	H122	0.132000	0.132200	0.670600
H1231	H123	0.062800	0.152040	0.629760
H1241	H124	0.859650	0.125850	0.753650
H1251	H125	0.894900	0.147990	0.681010
H1261	H126	0.971550	0.178050	0.740050
H1271	H127	0.413400	0.485900	0.798700
H1281	H128	0.310360	0.538520	0.820560
H1291	H129	0.178520	0.433850	0.905110
H1301	H130	0.166070	0.506930	0.885730
H1311	H131	0.122420	0.460000	0.816000
H1321	H132	0.190100	0.542130	0.769270
H1331	H133	0.217700	0.491220	0.715780
H1341	H134	0.384020	0.405080	0.680880
H1351	H135	0.458770	0.403230	0.713030
H1361	H136	0.434800	0.367800	0.829400
H1371	H137	0.344600	0.347960	0.870240
H1381	H138	0.239150	0.374150	0.746350
H1391	H139	0.223900	0.352010	0.818990
H1401	H140	0.389650	0.321950	0.759950
H1411	H141	0.399300	0.298700	0.514100
H1421	H142	0.348880	0.320560	0.461480
H1431	H143	0.112370	0.405110	0.566150
H1441	H144	0.173000	0.385730	0.493070
H1451	H145	0.082420	0.316000	0.540000
H1461	H146	0.232230	0.269270	0.457870
H1471	H147	0.208920	0.215780	0.508780
H1481	H148	0.289100	0.180880	0.594920
H1491	H149	0.362000	0.213030	0.596770
H1501	H150	0.302600	0.329400	0.632200
H1511	H151	0.192560	0.370240	0.652040
H1521	H152	0.113300	0.246350	0.625850
H1531	H153	0.075910	0.318990	0.647990
H1541	H154	0.211600	0.259950	0.678050
H1551	H155	0.712100	0.201300	0.985900
H1561	H156	0.630920	0.179440	0.038520
H1571	H157	0.583630	0.094890	0.933850
H1581	H158	0.551800	0.114270	0.006930
H1591	H159	0.438420	0.184000	0.960000
H1601	H160	0.459370	0.230730	0.042130
H1611	H161	0.433480	0.284220	0.991220
H1621	H162	0.564900	0.319120	0.905080
H1631	H163	0.671800	0.286970	0.903230
H1641	H164	0.764200	0.170600	0.867800
H1651	H165	0.714840	0.129760	0.847960
H1661	H166	0.485500	0.253650	0.874150
H1671	H167	0.542890	0.181010	0.852010
H1681	H168	0.649600	0.240050	0.821950
H1691	H169	0.586600	0.201300	0.514100
H1701	H170	0.689640	0.179440	0.461480
H1711	H171	0.821480	0.094890	0.566150
H1721	H172	0.833930	0.114270	0.493070
H1731	H173	0.877580	0.184000	0.540000
H1741	H174	0.809900	0.230730	0.457870
H1751	H175	0.782300	0.284220	0.508780
H1761	H176	0.615980	0.319120	0.594920
H1771	H177	0.541230	0.286970	0.596770
H1781	H178	0.565200	0.170600	0.632200
H1791	H179	0.655400	0.129760	0.652040
H1801	H180	0.760850	0.253650	0.625850
H1811	H181	0.776100	0.181010	0.647990
H1821	H182	0.610350	0.240050	0.678050
H1831	H183	0.802000	0.298700	0.985900
H1841	H184	0.830560	0.320560	0.038520
H1851	H185	0.982520	0.405110	0.933850
H1861	H186	0.941270	0.385730	0.006930
H1871	H187	0.101580	0.316000	0.960000
H1881	H188	0.998500	0.269270	0.042130
H1891	H189	0.075300	0.215780	0.991220
H1901	H190	0.030020	0.180880	0.905080
H1911	H191	0.924970	0.213030	0.903230
H1921	H192	0.868000	0.329400	0.867800
H1931	H193	0.937200	0.370240	0.847960
H1941	H194	0.140350	0.246350	0.874150
H1951	H195	0.105100	0.318990	0.852010
H1961	H196	0.028450	0.259950	0.821950
H1971	H197	0.287900	0.014100	0.798700
H1981	H198	0.369080	0.961480	0.820560
H1991	H199	0.416370	0.066150	0.905110
H2001	H200	0.448200	0.993070	0.885730
H2011	H201	0.561580	0.040000	0.816000
H2021	H202	0.540630	0.957870	0.769270
H2031	H203	0.566520	0.008780	0.715780
H2041	H204	0.435100	0.094920	0.680880
H2051	H205	0.328200	0.096770	0.713030
H2061	H206	0.235800	0.132200	0.829400
H2071	H207	0.285160	0.152040	0.870240
H2081	H208	0.514500	0.125850	0.746350
H2091	H209	0.457110	0.147990	0.818990
H2101	H210	0.350400	0.178050	0.759950
H2111	H211	0.600700	0.485900	0.701300
H2121	H212	0.651120	0.538520	0.679440
H2131	H213	0.887630	0.433850	0.594890
H2141	H214	0.827000	0.506930	0.614270
H2151	H215	0.917580	0.460000	0.684000
H2161	H216	0.767770	0.542130	0.730730
H2171	H217	0.791080	0.491220	0.784220
H2181	H218	0.710900	0.405080	0.819120
H2191	H219	0.638000	0.403230	0.786970
H2201	H220	0.697400	0.367800	0.670600
H2211	H221	0.807440	0.347960	0.629760
H2221	H222	0.886700	0.374150	0.753650
H2231	H223	0.924090	0.352010	0.681010
H2241	H224	0.788400	0.321950	0.740050
C11	C1	0.939640	0.983800	0.242920
C21	C2	0.853690	0.993890	0.306330
C31	C3	0.882010	0.948120	0.359460
C41	C4	0.963620	0.962340	0.371420
C51	C5	0.049830	0.951340	0.308240
C61	C6	0.020520	0.997500	0.255460
C71	C7	0.975550	0.912310	0.220990
C81	C8	0.918660	0.877200	0.336880
C91	C9	0.085270	0.881240	0.286020
C101	C10	0.005070	0.867120	0.274140
C111	C11	0.909100	0.026640	0.189960
C121	C12	0.796200	0.958680	0.421320
C131	C13	0.666360	0.516200	0.257080
C141	C14	0.653910	0.506110	0.193670
C151	C15	0.689590	0.551880	0.140540
C161	C16	0.797380	0.537660	0.128580
C171	C17	0.809410	0.548660	0.191760
C181	C18	0.773480	0.502500	0.244540
C191	C19	0.608850	0.587690	0.279010
C201	C20	0.632740	0.622800	0.163120
C211	C21	0.752530	0.618760	0.213980
C221	C22	0.646330	0.632880	0.225860
C231	C23	0.625700	0.473360	0.310040
C241	C24	0.676200	0.541320	0.078680
C251	C25	0.682560	0.757080	0.483800
C261	C26	0.660020	0.693670	0.493890
C271	C27	0.741470	0.640540	0.448120
C281	C28	0.835040	0.628580	0.462340
C291	C29	0.858070	0.691760	0.451340
C301	C30	0.775980	0.744540	0.497500
C311	C31	0.696540	0.779010	0.412310
C321	C32	0.755540	0.663120	0.377200
C331	C33	0.871290	0.713980	0.381240
C341	C34	0.779210	0.725860	0.367120
C351	C35	0.599060	0.810040	0.526640
C361	C36	0.717520	0.578680	0.458680
C371	C37	0.423440	0.742920	0.016200
C381	C38	0.347580	0.806330	0.006110
C391	C39	0.330130	0.859460	0.051880
C401	C40	0.425960	0.871420	0.037660
C411	C41	0.501170	0.808240	0.048660
C421	C42	0.518020	0.755460	0.002500
C431	C43	0.387860	0.720990	0.087690
C441	C44	0.295860	0.836880	0.122800
C451	C45	0.466510	0.786020	0.118760
C461	C46	0.372190	0.774140	0.132880
C471	C47	0.435740	0.689960	0.973360
C481	C48	0.254880	0.921320	0.041320
C491	C49	0.333640	0.742920	0.483800
C501	C50	0.346090	0.806330	0.493890
C511	C51	0.310410	0.859460	0.448120
C521	C52	0.202620	0.871420	0.462340
C531	C53	0.190590	0.808240	0.451340
C541	C54	0.226520	0.755460	0.497500
C551	C55	0.391150	0.720990	0.412310
C561	C56	0.367260	0.836880	0.377200
C571	C57	0.247470	0.786020	0.381240
C581	C58	0.353670	0.774140	0.367120
C591	C59	0.374300	0.689960	0.526640
C601	C60	0.323800	0.921320	0.458680
C611	C61	0.060360	0.757080	0.016200
C621	C62	0.146310	0.693670	0.006110
C631	C63	0.117990	0.640540	0.051880
C641	C64	0.036380	0.628580	0.037660
C651	C65	0.950170	0.691760	0.048660
C661	C66	0.979480	0.744540	0.002500
C671	C67	0.024450	0.779010	0.087690
C681	C68	0.081340	0.663120	0.122800
C691	C69	0.914730	0.713980	0.118760
C701	C70	0.994930	0.725860	0.132880
C711	C71	0.090900	0.810040	0.973360
C721	C72	0.203800	0.578680	0.041320
C731	C73	0.576560	0.983800	0.257080
C741	C74	0.652420	0.993890	0.193670
C751	C75	0.669870	0.948120	0.140540
C761	C76	0.574040	0.962340	0.128580
C771	C77	0.498830	0.951340	0.191760
C781	C78	0.481980	0.997500	0.244540
C791	C79	0.612140	0.912310	0.279010
C801	C80	0.704140	0.877200	0.163120
C811	C81	0.533490	0.881240	0.213980
C821	C82	0.627810	0.867120	0.225860
C831	C83	0.564260	0.026640	0.310040
C841	C84	0.745120	0.958680	0.078680
C851	C85	0.317440	0.516200	0.242920
C861	C86	0.339980	0.506110	0.306330
C871	C87	0.258530	0.551880	0.359460
C881	C88	0.164960	0.537660	0.371420
C891	C89	0.141930	0.548660	0.308240
C901	C90	0.224020	0.502500	0.255460
C911	C91	0.303460	0.587690	0.220990
C921	C92	0.244460	0.622800	0.336880
C931	C93	0.128710	0.618760	0.286020
C941	C94	0.220790	0.632880	0.274140
C951	C95	0.400940	0.473360	0.189960
C961	C96	0.282480	0.541320	0.421320
C971	C97	0.060360	0.016200	0.757080
C981	C98	0.146310	0.006110	0.693670
C991	C99	0.117990	0.051880	0.640540
C1001	C100	0.036380	0.037660	0.628580
C1011	C101	0.950170	0.048660	0.691760
C1021	C102	0.979480	0.002500	0.744540
C1031	C103	0.024450	0.087690	0.779010
C1041	C104	0.081340	0.122800	0.663120
C1051	C105	0.914730	0.118760	0.713980
C1061	C106	0.994930	0.132880	0.725860
C1071	C107	0.090900	0.973360	0.810040
C1081	C108	0.203800	0.041320	0.578680
C1091	C109	0.333640	0.483800	0.742920
C1101	C110	0.346090	0.493890	0.806330
C1111	C111	0.310410	0.448120	0.859460
C1121	C112	0.202620	0.462340	0.871420
C1131	C113	0.190590	0.451340	0.808240
C1141	C114	0.226520	0.497500	0.755460
C1151	C115	0.391150	0.412310	0.720990
C1161	C116	0.367260	0.377200	0.836880
C1171	C117	0.247470	0.381240	0.786020
C1181	C118	0.353670	0.367120	0.774140
C1191	C119	0.374300	0.526640	0.689960
C1201	C120	0.323800	0.458680	0.921320
C1211	C121	0.317440	0.242920	0.516200
C1221	C122	0.339980	0.306330	0.506110
C1231	C123	0.258530	0.359460	0.551880
C1241	C124	0.164960	0.371420	0.537660
C1251	C125	0.141930	0.308240	0.548660
C1261	C126	0.224020	0.255460	0.502500
C1271	C127	0.303460	0.220990	0.587690
C1281	C128	0.244460	0.336880	0.622800
C1291	C129	0.128710	0.286020	0.618760
C1301	C130	0.220790	0.274140	0.632880
C1311	C131	0.400940	0.189960	0.473360
C1321	C132	0.282480	0.421320	0.541320
C1331	C133	0.576560	0.257080	0.983800
C1341	C134	0.652420	0.193670	0.993890
C1351	C135	0.669870	0.140540	0.948120
C1361	C136	0.574040	0.128580	0.962340
C1371	C137	0.498830	0.191760	0.951340
C1381	C138	0.481980	0.244540	0.997500
C1391	C139	0.612140	0.279010	0.912310
C1401	C140	0.704140	0.163120	0.877200
C1411	C141	0.533490	0.213980	0.881240
C1421	C142	0.627810	0.225860	0.867120
C1431	C143	0.564260	0.310040	0.026640
C1441	C144	0.745120	0.078680	0.958680
C1451	C145	0.666360	0.257080	0.516200
C1461	C146	0.653910	0.193670	0.506110
C1471	C147	0.689590	0.140540	0.551880
C1481	C148	0.797380	0.128580	0.537660
C1491	C149	0.809410	0.191760	0.548660
C1501	C150	0.773480	0.244540	0.502500
C1511	C151	0.608850	0.279010	0.587690
C1521	C152	0.632740	0.163120	0.622800
C1531	C153	0.752530	0.213980	0.618760
C1541	C154	0.646330	0.225860	0.632880
C1551	C155	0.625700	0.310040	0.473360
C1561	C156	0.676200	0.078680	0.541320
C1571	C157	0.939640	0.242920	0.983800
C1581	C158	0.853690	0.306330	0.993890
C1591	C159	0.882010	0.359460	0.948120
C1601	C160	0.963620	0.371420	0.962340
C1611	C161	0.049830	0.308240	0.951340
C1621	C162	0.020520	0.255460	0.997500
C1631	C163	0.975550	0.220990	0.912310
C1641	C164	0.918660	0.336880	0.877200
C1651	C165	0.085270	0.286020	0.881240
C1661	C166	0.005070	0.274140	0.867120
C1671	C167	0.909100	0.189960	0.026640
C1681	C168	0.796200	0.421320	0.958680
C1691	C169	0.423440	0.016200	0.742920
C1701	C170	0.347580	0.006110	0.806330
C1711	C171	0.330130	0.051880	0.859460
C1721	C172	0.425960	0.037660	0.871420
C1731	C173	0.501170	0.048660	0.808240
C1741	C174	0.518020	0.002500	0.755460
C1751	C175	0.387860	0.087690	0.720990
C1761	C176	0.295860	0.122800	0.836880
C1771	C177	0.466510	0.118760	0.786020
C1781	C178	0.372190	0.132880	0.774140
C1791	C179	0.435740	0.973360	0.689960
C1801	C180	0.254880	0.041320	0.921320
C1811	C181	0.682560	0.483800	0.757080
C1821	C182	0.660020	0.493890	0.693670
C1831	C183	0.741470	0.448120	0.640540
C1841	C184	0.835040	0.462340	0.628580
C1851	C185	0.858070	0.451340	0.691760
C1861	C186	0.775980	0.497500	0.744540
C1871	C187	0.696540	0.412310	0.779010
C1881	C188	0.755540	0.377200	0.663120
C1891	C189	0.871290	0.381240	0.713980
C1901	C190	0.779210	0.367120	0.725860
C1911	C191	0.599060	0.526640	0.810040
C1921	C192	0.717520	0.458680	0.578680
C1931	C193	0.509230	0.250000	0.250000
C1941	C194	0.259230	0.750000	0.750000
C1951	C195	0.490770	0.750000	0.750000
C1961	C196	0.740770	0.250000	0.250000
O11	O1	0.977400	0.027300	0.131700
O21	O2	0.830600	0.069300	0.189500
O31	O3	0.715800	0.979900	0.413900
O41	O4	0.806000	0.929500	0.476500
O51	O5	0.636400	0.472700	0.368300
O61	O6	0.589400	0.430700	0.310500
O71	O7	0.609600	0.520100	0.086100
O81	O8	0.712000	0.570500	0.023500
O91	O9	0.609100	0.868300	0.527300
O101	O10	0.520100	0.810500	0.569300
O111	O11	0.629700	0.586100	0.479900
O121	O12	0.782500	0.523500	0.429500
O131	O13	0.504700	0.631700	0.972700
O141	O14	0.399900	0.689500	0.930700
O151	O15	0.195700	0.913900	0.020100
O161	O16	0.235500	0.976500	0.070500
O171	O17	0.363600	0.631700	0.527300
O181	O18	0.410600	0.689500	0.569300
O191	O19	0.390400	0.913900	0.479900
O201	O20	0.288000	0.976500	0.429500
O211	O21	0.022600	0.868300	0.972700
O221	O22	0.169400	0.810500	0.930700
O231	O23	0.284200	0.586100	0.020100
O241	O24	0.194000	0.523500	0.070500
O251	O25	0.495300	0.027300	0.368300
O261	O26	0.600100	0.069300	0.310500
O271	O27	0.804300	0.979900	0.086100
O281	O28	0.764500	0.929500	0.023500
O291	O29	0.390900	0.472700	0.131700
O301	O30	0.479900	0.430700	0.189500
O311	O31	0.370300	0.520100	0.413900
O321	O32	0.217500	0.570500	0.476500
O331	O33	0.022600	0.972700	0.868300
O341	O34	0.169400	0.930700	0.810500
O351	O35	0.284200	0.020100	0.586100
O361	O36	0.194000	0.070500	0.523500
O371	O37	0.363600	0.527300	0.631700
O381	O38	0.410600	0.569300	0.689500
O391	O39	0.390400	0.479900	0.913900
O401	O40	0.288000	0.429500	0.976500
O411	O41	0.390900	0.131700	0.472700
O421	O42	0.479900	0.189500	0.430700
O431	O43	0.370300	0.413900	0.520100
O441	O44	0.217500	0.476500	0.570500
O451	O45	0.495300	0.368300	0.027300
O461	O46	0.600100	0.310500	0.069300
O471	O47	0.804300	0.086100	0.979900
O481	O48	0.764500	0.023500	0.929500
O491	O49	0.636400	0.368300	0.472700
O501	O50	0.589400	0.310500	0.430700
O511	O51	0.609600	0.086100	0.520100
O521	O52	0.712000	0.023500	0.570500
O531	O53	0.977400	0.131700	0.027300
O541	O54	0.830600	0.189500	0.069300
O551	O55	0.715800	0.413900	0.979900
O561	O56	0.806000	0.476500	0.929500
O571	O57	0.504700	0.972700	0.631700
O581	O58	0.399900	0.930700	0.689500
O591	O59	0.195700	0.020100	0.913900
O601	O60	0.235500	0.070500	0.976500
O611	O61	0.609100	0.527300	0.868300
O621	O62	0.520100	0.569300	0.810500
O631	O63	0.629700	0.479900	0.586100
O641	O64	0.782500	0.429500	0.523500
O651	O65	0.697200	0.140000	0.140000
O661	O66	0.477200	0.360000	0.360000
O671	O67	0.337200	0.860000	0.640000
O681	O68	0.337200	0.640000	0.860000
O691	O69	0.522800	0.640000	0.640000
O701	O70	0.302800	0.860000	0.860000
O711	O71	0.662800	0.140000	0.360000
O721	O72	0.662800	0.360000	0.140000
O731	O73	0.433540	0.250000	0.250000
O741	O74	0.183540	0.750000	0.750000
O751	O75	0.566460	0.750000	0.750000
O761	O76	0.816460	0.250000	0.250000
O771	O77	0.547070	0.214310	0.285690
O781	O78	0.547070	0.285690	0.214310
O791	O79	0.332760	0.714310	0.714310
O801	O80	0.261380	0.785690	0.785690
O811	O81	0.452930	0.785690	0.714310
O821	O82	0.452930	0.714310	0.785690
O831	O83	0.738620	0.214310	0.214310
O841	O84	0.667240	0.285690	0.285690
