data_ZEHCAQ02_clean_PM
_symmetry_space_group_name_H-M	'P1'
_cell_length_a	12.083000
_cell_length_b	14.893000
_cell_length_c	11.784000
_cell_angle_alpha	90.000000
_cell_angle_beta	98.160000
_cell_angle_gamma	90.000000
_symmetry_Int_Tables_number 1

loop_
_symmetry_equiv_pos_as_xyz
'x,y,z'

loop_
_atom_site_label
_atom_site_type_symbol
_atom_site_fract_x
_atom_site_fract_y
_atom_site_fract_z
Zn11	Zn1	0.403990	0.735760	0.087980
Zn21	Zn2	0.295310	0.613430	0.545040
P11	P1	0.330250	0.737890	0.344630
P21	P2	0.248600	0.911630	0.035980
O11	O1	0.264030	0.992410	0.961690
O21	O2	0.440140	0.751830	0.423480
O31	O3	0.338100	0.843330	0.015800
O41	O4	0.132470	0.868820	0.012360
O51	O5	0.257060	0.668770	0.397270
O61	O6	0.264770	0.827600	0.327880
O71	O7	0.265790	0.944800	0.164240
O81	O8	0.349270	0.701070	0.226920
Zn31	Zn3	0.903990	0.235760	0.087980
Zn41	Zn4	0.795310	0.113430	0.545040
P31	P3	0.830250	0.237890	0.344630
P41	P4	0.748600	0.411630	0.035980
O91	O9	0.764030	0.492410	0.961690
O101	O10	0.940140	0.251830	0.423480
O111	O11	0.838100	0.343330	0.015800
O121	O12	0.632470	0.368820	0.012360
O131	O13	0.757060	0.168770	0.397270
O141	O14	0.764770	0.327600	0.327880
O151	O15	0.765790	0.444800	0.164240
O161	O16	0.849270	0.201070	0.226920
Zn51	Zn5	0.596010	0.735760	0.412020
Zn61	Zn6	0.704690	0.613430	0.954960
P51	P5	0.669750	0.737890	0.155370
P61	P6	0.751400	0.911630	0.464020
O171	O17	0.735970	0.992410	0.538310
O181	O18	0.559860	0.751830	0.076520
O191	O19	0.661900	0.843330	0.484200
O201	O20	0.867530	0.868820	0.487640
O211	O21	0.742940	0.668770	0.102730
O221	O22	0.735230	0.827600	0.172120
O231	O23	0.734210	0.944800	0.335760
O241	O24	0.650730	0.701070	0.273080
Zn71	Zn7	0.096010	0.235760	0.412020
Zn81	Zn8	0.204690	0.113430	0.954960
P71	P7	0.169750	0.237890	0.155370
P81	P8	0.251400	0.411630	0.464020
O251	O25	0.235970	0.492410	0.538310
O261	O26	0.059860	0.251830	0.076520
O271	O27	0.161900	0.343330	0.484200
O281	O28	0.367530	0.368820	0.487640
O291	O29	0.242940	0.168770	0.102730
O301	O30	0.235230	0.327600	0.172120
O311	O31	0.234210	0.444800	0.335760
O321	O32	0.150730	0.201070	0.273080
Zn91	Zn9	0.596010	0.264240	0.912020
Zn101	Zn10	0.704690	0.386570	0.454960
P91	P9	0.669750	0.262110	0.655370
P101	P10	0.751400	0.088370	0.964020
O331	O33	0.735970	0.007590	0.038310
O341	O34	0.559860	0.248170	0.576520
O351	O35	0.661900	0.156670	0.984200
O361	O36	0.867530	0.131180	0.987640
O371	O37	0.742940	0.331230	0.602730
O381	O38	0.735230	0.172400	0.672120
O391	O39	0.734210	0.055200	0.835760
O401	O40	0.650730	0.298930	0.773080
Zn111	Zn11	0.096010	0.764240	0.912020
Zn121	Zn12	0.204690	0.886570	0.454960
P111	P11	0.169750	0.762110	0.655370
P121	P12	0.251400	0.588370	0.964020
O411	O41	0.235970	0.507590	0.038310
O421	O42	0.059860	0.748170	0.576520
O431	O43	0.161900	0.656670	0.984200
O441	O44	0.367530	0.631180	0.987640
O451	O45	0.242940	0.831230	0.602730
O461	O46	0.235230	0.672400	0.672120
O471	O47	0.234210	0.555200	0.835760
O481	O48	0.150730	0.798930	0.773080
Zn131	Zn13	0.403990	0.264240	0.587980
Zn141	Zn14	0.295310	0.386570	0.045040
P131	P13	0.330250	0.262110	0.844630
P141	P14	0.248600	0.088370	0.535980
O491	O49	0.264030	0.007590	0.461690
O501	O50	0.440140	0.248170	0.923480
O511	O51	0.338100	0.156670	0.515800
O521	O52	0.132470	0.131180	0.512360
O531	O53	0.257060	0.331230	0.897270
O541	O54	0.264770	0.172400	0.827880
O551	O55	0.265790	0.055200	0.664240
O561	O56	0.349270	0.298930	0.726920
Zn151	Zn15	0.903990	0.764240	0.587980
Zn161	Zn16	0.795310	0.886570	0.045040
P151	P15	0.830250	0.762110	0.844630
P161	P16	0.748600	0.588370	0.535980
O571	O57	0.764030	0.507590	0.461690
O581	O58	0.940140	0.748170	0.923480
O591	O59	0.838100	0.656670	0.515800
O601	O60	0.632470	0.631180	0.512360
O611	O61	0.757060	0.831230	0.897270
O621	O62	0.764770	0.672400	0.827880
O631	O63	0.765790	0.555200	0.664240
O641	O64	0.849270	0.798930	0.726920
