data_ZEHCAQ_clean_PM
_symmetry_space_group_name_H-M	'P1'
_cell_length_a	12.093000
_cell_length_b	14.897000
_cell_length_c	11.849000
_cell_angle_alpha	90.000000
_cell_angle_beta	97.821000
_cell_angle_gamma	90.000000
_symmetry_Int_Tables_number 1

loop_
_symmetry_equiv_pos_as_xyz
'x,y,z'

loop_
_atom_site_label
_atom_site_type_symbol
_atom_site_fract_x
_atom_site_fract_y
_atom_site_fract_z
Zn11	Zn1	0.904160	0.236760	0.088950
Zn21	Zn2	0.795520	0.113550	0.543780
P11	P1	0.830200	0.238300	0.344620
P21	P2	0.747700	0.411020	0.037190
O11	O1	0.839500	0.345400	0.019600
O21	O2	0.847900	0.202230	0.226800
O31	O3	0.940700	0.251100	0.422100
O41	O4	0.866100	0.133600	0.987300
O51	O5	0.757000	0.169480	0.397700
O61	O6	0.764700	0.328220	0.329800
O71	O7	0.761600	0.492100	0.963000
O81	O8	0.760700	0.445400	0.164100
H11	H1	0.762000	0.405000	0.213000
Zn31	Zn3	0.404160	0.736760	0.088950
Zn41	Zn4	0.295520	0.613550	0.543780
P31	P3	0.330200	0.738300	0.344620
P41	P4	0.247700	0.911020	0.037190
O91	O9	0.339500	0.845400	0.019600
O101	O10	0.347900	0.702230	0.226800
O111	O11	0.440700	0.751100	0.422100
O121	O12	0.366100	0.633600	0.987300
O131	O13	0.257000	0.669480	0.397700
O141	O14	0.264700	0.828220	0.329800
O151	O15	0.261600	0.992100	0.963000
O161	O16	0.260700	0.945400	0.164100
H21	H2	0.262000	0.905000	0.213000
Zn51	Zn5	0.095840	0.236760	0.411050
Zn61	Zn6	0.204480	0.113550	0.956220
P51	P5	0.169800	0.238300	0.155380
P61	P6	0.252300	0.411020	0.462810
O171	O17	0.160500	0.345400	0.480400
O181	O18	0.152100	0.202230	0.273200
O191	O19	0.059300	0.251100	0.077900
O201	O20	0.133900	0.133600	0.512700
O211	O21	0.243000	0.169480	0.102300
O221	O22	0.235300	0.328220	0.170200
O231	O23	0.238400	0.492100	0.537000
O241	O24	0.239300	0.445400	0.335900
H31	H3	0.238000	0.405000	0.287000
Zn71	Zn7	0.595840	0.736760	0.411050
Zn81	Zn8	0.704480	0.613550	0.956220
P71	P7	0.669800	0.738300	0.155380
P81	P8	0.752300	0.911020	0.462810
O251	O25	0.660500	0.845400	0.480400
O261	O26	0.652100	0.702230	0.273200
O271	O27	0.559300	0.751100	0.077900
O281	O28	0.633900	0.633600	0.512700
O291	O29	0.743000	0.669480	0.102300
O301	O30	0.735300	0.828220	0.170200
O311	O31	0.738400	0.992100	0.537000
O321	O32	0.739300	0.945400	0.335900
H41	H4	0.738000	0.905000	0.287000
Zn91	Zn9	0.095840	0.763240	0.911050
Zn101	Zn10	0.204480	0.886450	0.456220
P91	P9	0.169800	0.761700	0.655380
P101	P10	0.252300	0.588980	0.962810
O331	O33	0.160500	0.654600	0.980400
O341	O34	0.152100	0.797770	0.773200
O351	O35	0.059300	0.748900	0.577900
O361	O36	0.133900	0.866400	0.012700
O371	O37	0.243000	0.830520	0.602300
O381	O38	0.235300	0.671780	0.670200
O391	O39	0.238400	0.507900	0.037000
O401	O40	0.239300	0.554600	0.835900
H51	H5	0.238000	0.595000	0.787000
Zn111	Zn11	0.595840	0.263240	0.911050
Zn121	Zn12	0.704480	0.386450	0.456220
P111	P11	0.669800	0.261700	0.655380
P121	P12	0.752300	0.088980	0.962810
O411	O41	0.660500	0.154600	0.980400
O421	O42	0.652100	0.297770	0.773200
O431	O43	0.559300	0.248900	0.577900
O441	O44	0.633900	0.366400	0.012700
O451	O45	0.743000	0.330520	0.602300
O461	O46	0.735300	0.171780	0.670200
O471	O47	0.738400	0.007900	0.037000
O481	O48	0.739300	0.054600	0.835900
H61	H6	0.738000	0.095000	0.787000
Zn131	Zn13	0.904160	0.763240	0.588950
Zn141	Zn14	0.795520	0.886450	0.043780
P131	P13	0.830200	0.761700	0.844620
P141	P14	0.747700	0.588980	0.537190
O491	O49	0.839500	0.654600	0.519600
O501	O50	0.847900	0.797770	0.726800
O511	O51	0.940700	0.748900	0.922100
O521	O52	0.866100	0.866400	0.487300
O531	O53	0.757000	0.830520	0.897700
O541	O54	0.764700	0.671780	0.829800
O551	O55	0.761600	0.507900	0.463000
O561	O56	0.760700	0.554600	0.664100
H71	H7	0.762000	0.595000	0.713000
Zn151	Zn15	0.404160	0.263240	0.588950
Zn161	Zn16	0.295520	0.386450	0.043780
P151	P15	0.330200	0.261700	0.844620
P161	P16	0.247700	0.088980	0.537190
O571	O57	0.339500	0.154600	0.519600
O581	O58	0.347900	0.297770	0.726800
O591	O59	0.440700	0.248900	0.922100
O601	O60	0.366100	0.366400	0.487300
O611	O61	0.257000	0.330520	0.897700
O621	O62	0.264700	0.171780	0.829800
O631	O63	0.261600	0.007900	0.463000
O641	O64	0.260700	0.054600	0.664100
H81	H8	0.262000	0.095000	0.713000
