data_ZEJCUO_clean_PM
_symmetry_space_group_name_H-M	'P1'
_cell_length_a	4.968000
_cell_length_b	11.621000
_cell_length_c	19.669000
_cell_angle_alpha	107.160000
_cell_angle_beta	90.000000
_cell_angle_gamma	90.000000
_symmetry_Int_Tables_number 1

loop_
_symmetry_equiv_pos_as_xyz
'x,y,z'

loop_
_atom_site_label
_atom_site_type_symbol
_atom_site_fract_x
_atom_site_fract_y
_atom_site_fract_z
Mn11	Mn1	0.725260	0.617300	0.731220
Mn21	Mn2	0.720650	0.878470	0.256970
Mn31	Mn3	0.223950	0.878680	0.757770
Mn41	Mn4	0.225900	0.618600	0.234000
Mn51	Mn5	0.725260	0.382700	0.268780
Mn61	Mn6	0.720650	0.121530	0.743030
Mn71	Mn7	0.223950	0.121320	0.242230
Mn81	Mn8	0.225900	0.381400	0.766000
P11	P1	0.288200	0.673200	0.836250
P21	P2	0.283300	0.832200	0.155350
P31	P3	0.784500	0.326700	0.662600
P41	P4	0.786900	0.167500	0.342500
P51	P5	0.288200	0.326800	0.163750
P61	P6	0.283300	0.167800	0.844650
P71	P7	0.784500	0.673300	0.337400
P81	P8	0.786900	0.832500	0.657500
H11	H1	0.757260	0.761220	0.932020
H21	H2	0.760930	0.805880	0.064210
H31	H3	0.847660	0.076160	0.564900
H41	H4	0.961710	0.025870	0.434910
H51	H5	0.757260	0.238780	0.067980
H61	H6	0.760930	0.194120	0.935790
H71	H7	0.847660	0.923840	0.435100
H81	H8	0.961710	0.974130	0.565090
C11	C1	0.347000	0.732900	0.930300
C21	C2	0.360700	0.793800	0.063300
C31	C3	0.598200	0.761100	0.959700
C41	C4	0.599500	0.790400	0.036200
C51	C5	0.833000	0.187800	0.435700
C61	C6	0.847000	0.266300	0.568500
C71	C7	0.860700	0.132900	0.538100
C81	C8	0.896100	0.102900	0.463000
C91	C9	0.347000	0.267100	0.069700
C101	C10	0.360700	0.206200	0.936700
C111	C11	0.598200	0.238900	0.040300
C121	C12	0.599500	0.209600	0.963800
C131	C13	0.833000	0.812200	0.564300
C141	C14	0.847000	0.733700	0.431500
C151	C15	0.860700	0.867100	0.461900
C161	C16	0.896100	0.897100	0.537000
S11	S1	0.114300	0.744300	0.996810
S21	S2	0.806700	0.327700	0.502800
S31	S3	0.114300	0.255700	0.003190
S41	S4	0.806700	0.672300	0.497200
O11	O1	0.432000	0.749400	0.799000
O21	O2	0.435000	0.548500	0.807000
O31	O3	0.992200	0.665600	0.821800
O41	O4	0.429000	0.733300	0.184700
O51	O5	0.430000	0.954100	0.190300
O61	O6	0.980500	0.835800	0.167200
O71	O7	0.928000	0.239900	0.699200
O81	O8	0.932000	0.450600	0.686300
O91	O9	0.484000	0.333900	0.674600
O101	O10	0.923000	0.258300	0.314600
O111	O11	0.920000	0.045200	0.303300
O121	O12	0.487000	0.166700	0.331400
O131	O13	0.432000	0.250600	0.201000
O141	O14	0.435000	0.451500	0.193000
O151	O15	0.992200	0.334400	0.178200
O161	O16	0.429000	0.266700	0.815300
O171	O17	0.430000	0.045900	0.809700
O181	O18	0.980500	0.164200	0.832800
O191	O19	0.928000	0.760100	0.300800
O201	O20	0.932000	0.549400	0.313700
O211	O21	0.484000	0.666100	0.325400
O221	O22	0.923000	0.741700	0.685400
O231	O23	0.920000	0.954800	0.696700
O241	O24	0.487000	0.833300	0.668600
