data_ZEKRIS_clean_PM
_symmetry_space_group_name_H-M	'P1'
_cell_length_a	9.666000
_cell_length_b	11.692000
_cell_length_c	12.366000
_cell_angle_alpha	72.750000
_cell_angle_beta	67.912000
_cell_angle_gamma	76.869000
_symmetry_Int_Tables_number 1

loop_
_symmetry_equiv_pos_as_xyz
'x,y,z'

loop_
_atom_site_label
_atom_site_type_symbol
_atom_site_fract_x
_atom_site_fract_y
_atom_site_fract_z
Li11	Li1	0.546900	0.383300	0.053300
Li21	Li2	0.534900	0.072600	0.387500
Li31	Li3	0.234000	0.108500	0.516500
Li41	Li4	0.554900	0.307400	0.305200
Li51	Li5	0.453100	0.616700	0.946700
Li61	Li6	0.465100	0.927400	0.612500
Li71	Li7	0.766000	0.891500	0.483500
Li81	Li8	0.445100	0.692600	0.694800
H11	H1	0.097200	0.101900	0.338100
H21	H2	0.849500	0.330600	0.146300
H31	H3	0.251600	0.403500	0.111900
H41	H4	0.581800	0.610700	0.348600
H51	H5	0.544300	0.773900	0.025500
H61	H6	0.538200	0.970000	0.244000
H71	H7	0.902800	0.898100	0.661900
H81	H8	0.150500	0.669400	0.853700
H91	H9	0.748400	0.596500	0.888100
H101	H10	0.418200	0.389300	0.651400
H111	H11	0.455700	0.226100	0.974500
H121	H12	0.461800	0.030000	0.756000
C11	C1	0.337130	0.218150	0.263090
C21	C2	0.826720	0.127360	0.319920
C31	C3	0.197880	0.247370	0.228660
C41	C4	0.084650	0.173600	0.282420
C51	C5	0.952460	0.205690	0.253920
C61	C6	0.936320	0.309520	0.167390
C71	C7	0.050730	0.381820	0.112360
C81	C8	0.178160	0.351860	0.145980
C91	C9	0.555520	0.799230	0.436100
C101	C10	0.571820	0.551450	0.162840
C111	C11	0.558160	0.791750	0.315720
C121	C12	0.569930	0.681290	0.291510
C131	C13	0.564340	0.673930	0.183140
C141	C14	0.547700	0.777970	0.098420
C151	C15	0.535800	0.888940	0.122080
C161	C16	0.543300	0.895160	0.229720
C171	C17	0.662870	0.781850	0.736910
C181	C18	0.173280	0.872640	0.680080
C191	C19	0.802120	0.752630	0.771340
C201	C20	0.915350	0.826400	0.717580
C211	C21	0.047540	0.794310	0.746080
C221	C22	0.063680	0.690480	0.832610
C231	C23	0.949270	0.618180	0.887640
C241	C24	0.821840	0.648140	0.854020
C251	C25	0.444480	0.200770	0.563900
C261	C26	0.428180	0.448550	0.837160
C271	C27	0.441840	0.208250	0.684280
C281	C28	0.430070	0.318710	0.708490
C291	C29	0.435660	0.326070	0.816860
C301	C30	0.452300	0.222030	0.901580
C311	C31	0.464200	0.111060	0.877920
C321	C32	0.456700	0.104840	0.770280
N11	N1	0.048820	0.491680	0.022760
N21	N2	0.512150	0.002620	0.044290
N31	N3	0.951180	0.508320	0.977240
N41	N4	0.487850	0.997380	0.955710
O11	O1	0.348330	0.126950	0.345180
O21	O2	0.436270	0.287010	0.209270
O31	O3	0.703390	0.164650	0.301840
O41	O4	0.852780	0.031270	0.389320
O51	O5	0.572190	0.900860	0.444580
O61	O6	0.541960	0.546040	0.074080
O71	O7	0.604640	0.463190	0.237130
O81	O8	0.536740	0.709170	0.519700
O91	O9	0.651670	0.873050	0.654820
O101	O10	0.563730	0.712990	0.790730
O111	O11	0.296610	0.835350	0.698160
O121	O12	0.147220	0.968730	0.610680
O131	O13	0.427810	0.099140	0.555420
O141	O14	0.458040	0.453960	0.925920
O151	O15	0.395360	0.536810	0.762870
O161	O16	0.463260	0.290830	0.480300
