data_ZELQAK_clean_PM
_symmetry_space_group_name_H-M	'P1'
_cell_length_a	26.115000
_cell_length_b	26.436000
_cell_length_c	26.347300
_cell_angle_alpha	90.000000
_cell_angle_beta	90.000000
_cell_angle_gamma	90.000000
_symmetry_Int_Tables_number 1

loop_
_symmetry_equiv_pos_as_xyz
'x,y,z'

loop_
_atom_site_label
_atom_site_type_symbol
_atom_site_fract_x
_atom_site_fract_y
_atom_site_fract_z
Zn11	Zn1	0.246080	0.527300	0.753250
Zn21	Zn2	0.290340	0.598610	0.850930
Zn31	Zn3	0.905240	0.721180	0.166140
Zn41	Zn4	0.971630	0.731360	0.763720
Zn51	Zn5	0.253920	0.972700	0.753250
Zn61	Zn6	0.209660	0.901390	0.850930
Zn71	Zn7	0.594760	0.778820	0.166140
Zn81	Zn8	0.528370	0.768640	0.763720
Zn91	Zn9	0.746080	0.472700	0.746750
Zn101	Zn10	0.790340	0.401390	0.649070
Zn111	Zn11	0.405240	0.278820	0.333860
Zn121	Zn12	0.471630	0.268640	0.736280
Zn131	Zn13	0.753920	0.027300	0.746750
Zn141	Zn14	0.709660	0.098610	0.649070
Zn151	Zn15	0.094760	0.221180	0.333860
Zn161	Zn16	0.028370	0.231360	0.736280
Zn171	Zn17	0.753920	0.472700	0.246750
Zn181	Zn18	0.709660	0.401390	0.149070
Zn191	Zn19	0.094760	0.278820	0.833860
Zn201	Zn20	0.028370	0.268640	0.236280
Zn211	Zn21	0.746080	0.027300	0.246750
Zn221	Zn22	0.790340	0.098610	0.149070
Zn231	Zn23	0.405240	0.221180	0.833860
Zn241	Zn24	0.471630	0.231360	0.236280
Zn251	Zn25	0.253920	0.527300	0.253250
Zn261	Zn26	0.209660	0.598610	0.350930
Zn271	Zn27	0.594760	0.721180	0.666140
Zn281	Zn28	0.528370	0.731360	0.263720
Zn291	Zn29	0.246080	0.972700	0.253250
Zn301	Zn30	0.290340	0.901390	0.350930
Zn311	Zn31	0.905240	0.778820	0.666140
Zn321	Zn32	0.971630	0.768640	0.263720
H11	H1	0.099600	0.632100	0.786600
H21	H2	0.043900	0.649600	0.929000
H31	H3	0.174400	0.568700	0.905500
H41	H4	0.082400	0.660200	0.016800
H51	H5	0.036500	0.652300	0.105100
H61	H6	0.096900	0.661400	0.246400
H71	H7	0.171500	0.583200	0.136800
H81	H8	0.158200	0.388600	0.736000
H91	H9	0.089800	0.317000	0.618400
H101	H10	0.166400	0.448400	0.595200
H111	H11	0.162000	0.422600	0.504200
H121	H12	0.148500	0.463800	0.419200
H131	H13	0.135500	0.416100	0.273800
H141	H14	0.076400	0.331100	0.387700
H151	H15	0.400400	0.867900	0.786600
H161	H16	0.456100	0.850400	0.929000
H171	H17	0.325600	0.931300	0.905500
H181	H18	0.417600	0.839800	0.016800
H191	H19	0.463500	0.847700	0.105100
H201	H20	0.403100	0.838600	0.246400
H211	H21	0.328500	0.916800	0.136800
H221	H22	0.341800	0.111400	0.736000
H231	H23	0.410200	0.183000	0.618400
H241	H24	0.333600	0.051600	0.595200
H251	H25	0.338000	0.077400	0.504200
H261	H26	0.351500	0.036200	0.419200
H271	H27	0.364500	0.083900	0.273800
H281	H28	0.423600	0.168900	0.387700
H291	H29	0.599600	0.367900	0.713400
H301	H30	0.543900	0.350400	0.571000
H311	H31	0.674400	0.431300	0.594500
H321	H32	0.582400	0.339800	0.483200
H331	H33	0.536500	0.347700	0.394900
H341	H34	0.596900	0.338600	0.253600
H351	H35	0.671500	0.416800	0.363200
H361	H36	0.658200	0.611400	0.764000
H371	H37	0.589800	0.683000	0.881600
H381	H38	0.666400	0.551600	0.904800
H391	H39	0.662000	0.577400	0.995800
H401	H40	0.648500	0.536200	0.080800
H411	H41	0.635500	0.583900	0.226200
H421	H42	0.576400	0.668900	0.112300
H431	H43	0.900400	0.132100	0.713400
H441	H44	0.956100	0.149600	0.571000
H451	H45	0.825600	0.068700	0.594500
H461	H46	0.917600	0.160200	0.483200
H471	H47	0.963500	0.152300	0.394900
H481	H48	0.903100	0.161400	0.253600
H491	H49	0.828500	0.083200	0.363200
H501	H50	0.841800	0.888600	0.764000
H511	H51	0.910200	0.817000	0.881600
H521	H52	0.833600	0.948400	0.904800
H531	H53	0.838000	0.922600	0.995800
H541	H54	0.851500	0.963800	0.080800
H551	H55	0.864500	0.916100	0.226200
H561	H56	0.923600	0.831100	0.112300
H571	H57	0.900400	0.367900	0.213400
H581	H58	0.956100	0.350400	0.071000
H591	H59	0.825600	0.431300	0.094500
H601	H60	0.917600	0.339800	0.983200
H611	H61	0.963500	0.347700	0.894900
H621	H62	0.903100	0.338600	0.753600
H631	H63	0.828500	0.416800	0.863200
H641	H64	0.841800	0.611400	0.264000
H651	H65	0.910200	0.683000	0.381600
H661	H66	0.833600	0.551600	0.404800
H671	H67	0.838000	0.577400	0.495800
H681	H68	0.851500	0.536200	0.580800
H691	H69	0.864500	0.583900	0.726200
H701	H70	0.923600	0.668900	0.612300
H711	H71	0.599600	0.132100	0.213400
H721	H72	0.543900	0.149600	0.071000
H731	H73	0.674400	0.068700	0.094500
H741	H74	0.582400	0.160200	0.983200
H751	H75	0.536500	0.152300	0.894900
H761	H76	0.596900	0.161400	0.753600
H771	H77	0.671500	0.083200	0.863200
H781	H78	0.658200	0.888600	0.264000
H791	H79	0.589800	0.817000	0.381600
H801	H80	0.666400	0.948400	0.404800
H811	H81	0.662000	0.922600	0.495800
H821	H82	0.648500	0.963800	0.580800
H831	H83	0.635500	0.916100	0.726200
H841	H84	0.576400	0.831100	0.612300
H851	H85	0.400400	0.632100	0.286600
H861	H86	0.456100	0.649600	0.429000
H871	H87	0.325600	0.568700	0.405500
H881	H88	0.417600	0.660200	0.516800
H891	H89	0.463500	0.652300	0.605100
H901	H90	0.403100	0.661400	0.746400
H911	H91	0.328500	0.583200	0.636800
H921	H92	0.341800	0.388600	0.236000
H931	H93	0.410200	0.317000	0.118400
H941	H94	0.333600	0.448400	0.095200
H951	H95	0.338000	0.422600	0.004200
H961	H96	0.351500	0.463800	0.919200
H971	H97	0.364500	0.416100	0.773800
H981	H98	0.423600	0.331100	0.887700
H991	H99	0.099600	0.867900	0.286600
H1001	H100	0.043900	0.850400	0.429000
H1011	H101	0.174400	0.931300	0.405500
H1021	H102	0.082400	0.839800	0.516800
H1031	H103	0.036500	0.847700	0.605100
H1041	H104	0.096900	0.838600	0.746400
H1051	H105	0.171500	0.916800	0.636800
H1061	H106	0.158200	0.111400	0.236000
H1071	H107	0.089800	0.183000	0.118400
H1081	H108	0.166400	0.051600	0.095200
H1091	H109	0.162000	0.077400	0.004200
H1101	H110	0.148500	0.036200	0.919200
H1111	H111	0.135500	0.083900	0.773800
H1121	H112	0.076400	0.168900	0.887700
C11	C1	0.181070	0.576590	0.804300
C21	C2	0.142740	0.597890	0.841030
C31	C3	0.102310	0.626460	0.822110
C41	C4	0.065940	0.646840	0.854460
C51	C5	0.023910	0.679460	0.834750
C61	C6	0.069020	0.636670	0.906440
C71	C7	0.109160	0.607600	0.924700
C81	C8	0.146810	0.588110	0.892490
C91	C9	0.097800	0.627720	0.018410
C101	C10	0.109980	0.601070	0.060420
C111	C11	0.105210	0.616390	0.112790
C121	C12	0.063260	0.644670	0.128310
C131	C13	0.060750	0.661750	0.178150
C141	C14	0.015140	0.692230	0.194110
C151	C15	0.098720	0.649420	0.212460
C161	C16	0.139910	0.619290	0.197000
C171	C17	0.180940	0.603170	0.233690
C181	C18	0.143290	0.603240	0.147380
C191	C19	0.199030	0.467470	0.688420
C201	C20	0.167530	0.423980	0.668320
C211	C21	0.150570	0.386570	0.700810
C221	C22	0.122430	0.346030	0.682430
C231	C23	0.102050	0.306060	0.716980
C241	C24	0.109390	0.344420	0.631330
C251	C25	0.125180	0.383280	0.599070
C261	C26	0.154810	0.422540	0.617420
C271	C27	0.109910	0.381460	0.546340
C281	C28	0.132310	0.401940	0.504970
C291	C29	0.111990	0.396040	0.411820
C301	C30	0.137160	0.439330	0.395340
C311	C31	0.145700	0.446610	0.343800
C321	C32	0.174450	0.492740	0.326240
C331	C33	0.128800	0.411370	0.308890
C341	C34	0.101600	0.368420	0.325240
C351	C35	0.081920	0.332280	0.287030
C361	C36	0.093930	0.360530	0.376420
C371	C37	0.318930	0.923410	0.804300
C381	C38	0.357260	0.902110	0.841030
C391	C39	0.397690	0.873540	0.822110
C401	C40	0.434060	0.853160	0.854460
C411	C41	0.476090	0.820540	0.834750
C421	C42	0.430980	0.863330	0.906440
C431	C43	0.390840	0.892400	0.924700
C441	C44	0.353190	0.911890	0.892490
C451	C45	0.402200	0.872280	0.018410
C461	C46	0.390020	0.898930	0.060420
C471	C47	0.394790	0.883610	0.112790
C481	C48	0.436740	0.855330	0.128310
C491	C49	0.439250	0.838250	0.178150
C501	C50	0.484860	0.807770	0.194110
C511	C51	0.401280	0.850580	0.212460
C521	C52	0.360090	0.880710	0.197000
C531	C53	0.319060	0.896830	0.233690
C541	C54	0.356710	0.896760	0.147380
C551	C55	0.300970	0.032530	0.688420
C561	C56	0.332470	0.076020	0.668320
C571	C57	0.349430	0.113430	0.700810
C581	C58	0.377570	0.153970	0.682430
C591	C59	0.397950	0.193940	0.716980
C601	C60	0.390610	0.155580	0.631330
C611	C61	0.374820	0.116720	0.599070
C621	C62	0.345190	0.077460	0.617420
C631	C63	0.390090	0.118540	0.546340
C641	C64	0.367690	0.098060	0.504970
C651	C65	0.388010	0.103960	0.411820
C661	C66	0.362840	0.060670	0.395340
C671	C67	0.354300	0.053390	0.343800
C681	C68	0.325550	0.007260	0.326240
C691	C69	0.371200	0.088630	0.308890
C701	C70	0.398400	0.131580	0.325240
C711	C71	0.418080	0.167720	0.287030
C721	C72	0.406070	0.139470	0.376420
C731	C73	0.681070	0.423410	0.695700
C741	C74	0.642740	0.402110	0.658970
C751	C75	0.602310	0.373540	0.677890
C761	C76	0.565940	0.353160	0.645540
C771	C77	0.523910	0.320540	0.665250
C781	C78	0.569020	0.363330	0.593560
C791	C79	0.609160	0.392400	0.575300
C801	C80	0.646810	0.411890	0.607510
C811	C81	0.597800	0.372280	0.481590
C821	C82	0.609980	0.398930	0.439580
C831	C83	0.605210	0.383610	0.387210
C841	C84	0.563260	0.355330	0.371690
C851	C85	0.560750	0.338250	0.321850
C861	C86	0.515140	0.307770	0.305890
C871	C87	0.598720	0.350580	0.287540
C881	C88	0.639910	0.380710	0.303000
C891	C89	0.680940	0.396830	0.266310
C901	C90	0.643290	0.396760	0.352620
C911	C91	0.699030	0.532530	0.811580
C921	C92	0.667530	0.576020	0.831680
C931	C93	0.650570	0.613430	0.799190
C941	C94	0.622430	0.653970	0.817570
C951	C95	0.602050	0.693940	0.783020
C961	C96	0.609390	0.655580	0.868670
C971	C97	0.625180	0.616720	0.900930
C981	C98	0.654810	0.577460	0.882580
C991	C99	0.609910	0.618540	0.953660
C1001	C100	0.632310	0.598060	0.995030
C1011	C101	0.611990	0.603960	0.088180
C1021	C102	0.637160	0.560670	0.104660
C1031	C103	0.645700	0.553390	0.156200
C1041	C104	0.674450	0.507260	0.173760
C1051	C105	0.628800	0.588630	0.191110
C1061	C106	0.601600	0.631580	0.174760
C1071	C107	0.581920	0.667720	0.212970
C1081	C108	0.593930	0.639470	0.123580
C1091	C109	0.818930	0.076590	0.695700
C1101	C110	0.857260	0.097890	0.658970
C1111	C111	0.897690	0.126460	0.677890
C1121	C112	0.934060	0.146840	0.645540
C1131	C113	0.976090	0.179460	0.665250
C1141	C114	0.930980	0.136670	0.593560
C1151	C115	0.890840	0.107600	0.575300
C1161	C116	0.853190	0.088110	0.607510
C1171	C117	0.902200	0.127720	0.481590
C1181	C118	0.890020	0.101070	0.439580
C1191	C119	0.894790	0.116390	0.387210
C1201	C120	0.936740	0.144670	0.371690
C1211	C121	0.939250	0.161750	0.321850
C1221	C122	0.984860	0.192230	0.305890
C1231	C123	0.901280	0.149420	0.287540
C1241	C124	0.860090	0.119290	0.303000
C1251	C125	0.819060	0.103170	0.266310
C1261	C126	0.856710	0.103240	0.352620
C1271	C127	0.800970	0.967470	0.811580
C1281	C128	0.832470	0.923980	0.831680
C1291	C129	0.849430	0.886570	0.799190
C1301	C130	0.877570	0.846030	0.817570
C1311	C131	0.897950	0.806060	0.783020
C1321	C132	0.890610	0.844420	0.868670
C1331	C133	0.874820	0.883280	0.900930
C1341	C134	0.845190	0.922540	0.882580
C1351	C135	0.890090	0.881460	0.953660
C1361	C136	0.867690	0.901940	0.995030
C1371	C137	0.888010	0.896040	0.088180
C1381	C138	0.862840	0.939330	0.104660
C1391	C139	0.854300	0.946610	0.156200
C1401	C140	0.825550	0.992740	0.173760
C1411	C141	0.871200	0.911370	0.191110
C1421	C142	0.898400	0.868420	0.174760
C1431	C143	0.918080	0.832280	0.212970
C1441	C144	0.906070	0.860530	0.123580
C1451	C145	0.818930	0.423410	0.195700
C1461	C146	0.857260	0.402110	0.158970
C1471	C147	0.897690	0.373540	0.177890
C1481	C148	0.934060	0.353160	0.145540
C1491	C149	0.976090	0.320540	0.165250
C1501	C150	0.930980	0.363330	0.093560
C1511	C151	0.890840	0.392400	0.075300
C1521	C152	0.853190	0.411890	0.107510
C1531	C153	0.902200	0.372280	0.981590
C1541	C154	0.890020	0.398930	0.939580
C1551	C155	0.894790	0.383610	0.887210
C1561	C156	0.936740	0.355330	0.871690
C1571	C157	0.939250	0.338250	0.821850
C1581	C158	0.984860	0.307770	0.805890
C1591	C159	0.901280	0.350580	0.787540
C1601	C160	0.860090	0.380710	0.803000
C1611	C161	0.819060	0.396830	0.766310
C1621	C162	0.856710	0.396760	0.852620
C1631	C163	0.800970	0.532530	0.311580
C1641	C164	0.832470	0.576020	0.331680
C1651	C165	0.849430	0.613430	0.299190
C1661	C166	0.877570	0.653970	0.317570
C1671	C167	0.897950	0.693940	0.283020
C1681	C168	0.890610	0.655580	0.368670
C1691	C169	0.874820	0.616720	0.400930
C1701	C170	0.845190	0.577460	0.382580
C1711	C171	0.890090	0.618540	0.453660
C1721	C172	0.867690	0.598060	0.495030
C1731	C173	0.888010	0.603960	0.588180
C1741	C174	0.862840	0.560670	0.604660
C1751	C175	0.854300	0.553390	0.656200
C1761	C176	0.825550	0.507260	0.673760
C1771	C177	0.871200	0.588630	0.691110
C1781	C178	0.898400	0.631580	0.674760
C1791	C179	0.918080	0.667720	0.712970
C1801	C180	0.906070	0.639470	0.623580
C1811	C181	0.681070	0.076590	0.195700
C1821	C182	0.642740	0.097890	0.158970
C1831	C183	0.602310	0.126460	0.177890
C1841	C184	0.565940	0.146840	0.145540
C1851	C185	0.523910	0.179460	0.165250
C1861	C186	0.569020	0.136670	0.093560
C1871	C187	0.609160	0.107600	0.075300
C1881	C188	0.646810	0.088110	0.107510
C1891	C189	0.597800	0.127720	0.981590
C1901	C190	0.609980	0.101070	0.939580
C1911	C191	0.605210	0.116390	0.887210
C1921	C192	0.563260	0.144670	0.871690
C1931	C193	0.560750	0.161750	0.821850
C1941	C194	0.515140	0.192230	0.805890
C1951	C195	0.598720	0.149420	0.787540
C1961	C196	0.639910	0.119290	0.803000
C1971	C197	0.680940	0.103170	0.766310
C1981	C198	0.643290	0.103240	0.852620
C1991	C199	0.699030	0.967470	0.311580
C2001	C200	0.667530	0.923980	0.331680
C2011	C201	0.650570	0.886570	0.299190
C2021	C202	0.622430	0.846030	0.317570
C2031	C203	0.602050	0.806060	0.283020
C2041	C204	0.609390	0.844420	0.368670
C2051	C205	0.625180	0.883280	0.400930
C2061	C206	0.654810	0.922540	0.382580
C2071	C207	0.609910	0.881460	0.453660
C2081	C208	0.632310	0.901940	0.495030
C2091	C209	0.611990	0.896040	0.588180
C2101	C210	0.637160	0.939330	0.604660
C2111	C211	0.645700	0.946610	0.656200
C2121	C212	0.674450	0.992740	0.673760
C2131	C213	0.628800	0.911370	0.691110
C2141	C214	0.601600	0.868420	0.674760
C2151	C215	0.581920	0.832280	0.712970
C2161	C216	0.593930	0.860530	0.623580
C2171	C217	0.318930	0.576590	0.304300
C2181	C218	0.357260	0.597890	0.341030
C2191	C219	0.397690	0.626460	0.322110
C2201	C220	0.434060	0.646840	0.354460
C2211	C221	0.476090	0.679460	0.334750
C2221	C222	0.430980	0.636670	0.406440
C2231	C223	0.390840	0.607600	0.424700
C2241	C224	0.353190	0.588110	0.392490
C2251	C225	0.402200	0.627720	0.518410
C2261	C226	0.390020	0.601070	0.560420
C2271	C227	0.394790	0.616390	0.612790
C2281	C228	0.436740	0.644670	0.628310
C2291	C229	0.439250	0.661750	0.678150
C2301	C230	0.484860	0.692230	0.694110
C2311	C231	0.401280	0.649420	0.712460
C2321	C232	0.360090	0.619290	0.697000
C2331	C233	0.319060	0.603170	0.733690
C2341	C234	0.356710	0.603240	0.647380
C2351	C235	0.300970	0.467470	0.188420
C2361	C236	0.332470	0.423980	0.168320
C2371	C237	0.349430	0.386570	0.200810
C2381	C238	0.377570	0.346030	0.182430
C2391	C239	0.397950	0.306060	0.216980
C2401	C240	0.390610	0.344420	0.131330
C2411	C241	0.374820	0.383280	0.099070
C2421	C242	0.345190	0.422540	0.117420
C2431	C243	0.390090	0.381460	0.046340
C2441	C244	0.367690	0.401940	0.004970
C2451	C245	0.388010	0.396040	0.911820
C2461	C246	0.362840	0.439330	0.895340
C2471	C247	0.354300	0.446610	0.843800
C2481	C248	0.325550	0.492740	0.826240
C2491	C249	0.371200	0.411370	0.808890
C2501	C250	0.398400	0.368420	0.825240
C2511	C251	0.418080	0.332280	0.787030
C2521	C252	0.406070	0.360530	0.876420
C2531	C253	0.181070	0.923410	0.304300
C2541	C254	0.142740	0.902110	0.341030
C2551	C255	0.102310	0.873540	0.322110
C2561	C256	0.065940	0.853160	0.354460
C2571	C257	0.023910	0.820540	0.334750
C2581	C258	0.069020	0.863330	0.406440
C2591	C259	0.109160	0.892400	0.424700
C2601	C260	0.146810	0.911890	0.392490
C2611	C261	0.097800	0.872280	0.518410
C2621	C262	0.109980	0.898930	0.560420
C2631	C263	0.105210	0.883610	0.612790
C2641	C264	0.063260	0.855330	0.628310
C2651	C265	0.060750	0.838250	0.678150
C2661	C266	0.015140	0.807770	0.694110
C2671	C267	0.098720	0.850580	0.712460
C2681	C268	0.139910	0.880710	0.697000
C2691	C269	0.180940	0.896830	0.733690
C2701	C270	0.143290	0.896760	0.647380
C2711	C271	0.199030	0.032530	0.188420
C2721	C272	0.167530	0.076020	0.168320
C2731	C273	0.150570	0.113430	0.200810
C2741	C274	0.122430	0.153970	0.182430
C2751	C275	0.102050	0.193940	0.216980
C2761	C276	0.109390	0.155580	0.131330
C2771	C277	0.125180	0.116720	0.099070
C2781	C278	0.154810	0.077460	0.117420
C2791	C279	0.109910	0.118540	0.046340
C2801	C280	0.132310	0.098060	0.004970
C2811	C281	0.111990	0.103960	0.911820
C2821	C282	0.137160	0.060670	0.895340
C2831	C283	0.145700	0.053390	0.843800
C2841	C284	0.174450	0.007260	0.826240
C2851	C285	0.128800	0.088630	0.808890
C2861	C286	0.101600	0.131580	0.825240
C2871	C287	0.081920	0.167720	0.787030
C2881	C288	0.093930	0.139470	0.876420
N11	N1	0.112470	0.597630	0.978750
N21	N2	0.131980	0.554010	0.997090
N31	N3	0.130580	0.556140	0.046720
N41	N4	0.065750	0.358310	0.531590
N51	N5	0.062230	0.361500	0.482150
N61	N6	0.104210	0.387230	0.465400
N71	N7	0.387530	0.902370	0.978750
N81	N8	0.368020	0.945990	0.997090
N91	N9	0.369420	0.943860	0.046720
N101	N10	0.434250	0.141690	0.531590
N111	N11	0.437770	0.138500	0.482150
N121	N12	0.395790	0.112770	0.465400
N131	N13	0.612470	0.402370	0.521250
N141	N14	0.631980	0.445990	0.502910
N151	N15	0.630580	0.443860	0.453280
N161	N16	0.565750	0.641690	0.968410
N171	N17	0.562230	0.638500	0.017850
N181	N18	0.604210	0.612770	0.034600
N191	N19	0.887530	0.097630	0.521250
N201	N20	0.868020	0.054010	0.502910
N211	N21	0.869420	0.056140	0.453280
N221	N22	0.934250	0.858310	0.968410
N231	N23	0.937770	0.861500	0.017850
N241	N24	0.895790	0.887230	0.034600
N251	N25	0.887530	0.402370	0.021250
N261	N26	0.868020	0.445990	0.002910
N271	N27	0.869420	0.443860	0.953280
N281	N28	0.934250	0.641690	0.468410
N291	N29	0.937770	0.638500	0.517850
N301	N30	0.895790	0.612770	0.534600
N311	N31	0.612470	0.097630	0.021250
N321	N32	0.631980	0.054010	0.002910
N331	N33	0.630580	0.056140	0.953280
N341	N34	0.565750	0.858310	0.468410
N351	N35	0.562230	0.861500	0.517850
N361	N36	0.604210	0.887230	0.534600
N371	N37	0.387530	0.597630	0.478750
N381	N38	0.368020	0.554010	0.497090
N391	N39	0.369420	0.556140	0.546720
N401	N40	0.434250	0.358310	0.031590
N411	N41	0.437770	0.361500	0.982150
N421	N42	0.395790	0.387230	0.965400
N431	N43	0.112470	0.902370	0.478750
N441	N44	0.131980	0.945990	0.497090
N451	N45	0.130580	0.943860	0.546720
N461	N46	0.065750	0.141690	0.031590
N471	N47	0.062230	0.138500	0.982150
N481	N48	0.104210	0.112770	0.965400
O11	O1	0.222910	0.557950	0.821910
O21	O2	0.171230	0.575160	0.758580
O31	O3	0.025810	0.688340	0.787120
O41	O4	0.990670	0.695440	0.863280
O51	O5	0.215960	0.576830	0.214600
O61	O6	0.177420	0.616070	0.279160
O71	O7	0.017880	0.713760	0.236540
O81	O8	0.977810	0.693620	0.164160
O91	O9	0.202100	0.469800	0.737100
O101	O10	0.225100	0.496000	0.660600
O111	O11	0.113370	0.308280	0.762430
O121	O12	0.074240	0.272870	0.696180
O131	O13	0.176940	0.529230	0.356450
O141	O14	0.193390	0.489930	0.282590
O151	O15	0.085470	0.341030	0.241570
O161	O16	0.059870	0.291590	0.303330
O171	O17	0.277090	0.942050	0.821910
O181	O18	0.328770	0.924840	0.758580
O191	O19	0.474190	0.811660	0.787120
O201	O20	0.509330	0.804560	0.863280
O211	O21	0.284040	0.923170	0.214600
O221	O22	0.322580	0.883930	0.279160
O231	O23	0.482120	0.786240	0.236540
O241	O24	0.522190	0.806380	0.164160
O251	O25	0.297900	0.030200	0.737100
O261	O26	0.274900	0.004000	0.660600
O271	O27	0.386630	0.191720	0.762430
O281	O28	0.425760	0.227130	0.696180
O291	O29	0.323060	0.970770	0.356450
O301	O30	0.306610	0.010070	0.282590
O311	O31	0.414530	0.158970	0.241570
O321	O32	0.440130	0.208410	0.303330
O331	O33	0.722910	0.442050	0.678090
O341	O34	0.671230	0.424840	0.741420
O351	O35	0.525810	0.311660	0.712880
O361	O36	0.490670	0.304560	0.636720
O371	O37	0.715960	0.423170	0.285400
O381	O38	0.677420	0.383930	0.220840
O391	O39	0.517880	0.286240	0.263460
O401	O40	0.477810	0.306380	0.335840
O411	O41	0.702100	0.530200	0.762900
O421	O42	0.725100	0.504000	0.839400
O431	O43	0.613370	0.691720	0.737570
O441	O44	0.574240	0.727130	0.803820
O451	O45	0.676940	0.470770	0.143550
O461	O46	0.693390	0.510070	0.217410
O471	O47	0.585470	0.658970	0.258430
O481	O48	0.559870	0.708410	0.196670
O491	O49	0.777090	0.057950	0.678090
O501	O50	0.828770	0.075160	0.741420
O511	O51	0.974190	0.188340	0.712880
O521	O52	0.009330	0.195440	0.636720
O531	O53	0.784040	0.076830	0.285400
O541	O54	0.822580	0.116070	0.220840
O551	O55	0.982120	0.213760	0.263460
O561	O56	0.022190	0.193620	0.335840
O571	O57	0.797900	0.969800	0.762900
O581	O58	0.774900	0.996000	0.839400
O591	O59	0.886630	0.808280	0.737570
O601	O60	0.925760	0.772870	0.803820
O611	O61	0.823060	0.029230	0.143550
O621	O62	0.806610	0.989930	0.217410
O631	O63	0.914530	0.841030	0.258430
O641	O64	0.940130	0.791590	0.196670
O651	O65	0.777090	0.442050	0.178090
O661	O66	0.828770	0.424840	0.241420
O671	O67	0.974190	0.311660	0.212880
O681	O68	0.009330	0.304560	0.136720
O691	O69	0.784040	0.423170	0.785400
O701	O70	0.822580	0.383930	0.720840
O711	O71	0.982120	0.286240	0.763460
O721	O72	0.022190	0.306380	0.835840
O731	O73	0.797900	0.530200	0.262900
O741	O74	0.774900	0.504000	0.339400
O751	O75	0.886630	0.691720	0.237570
O761	O76	0.925760	0.727130	0.303820
O771	O77	0.823060	0.470770	0.643550
O781	O78	0.806610	0.510070	0.717410
O791	O79	0.914530	0.658970	0.758430
O801	O80	0.940130	0.708410	0.696670
O811	O81	0.722910	0.057950	0.178090
O821	O82	0.671230	0.075160	0.241420
O831	O83	0.525810	0.188340	0.212880
O841	O84	0.490670	0.195440	0.136720
O851	O85	0.715960	0.076830	0.785400
O861	O86	0.677420	0.116070	0.720840
O871	O87	0.517880	0.213760	0.763460
O881	O88	0.477810	0.193620	0.835840
O891	O89	0.702100	0.969800	0.262900
O901	O90	0.725100	0.996000	0.339400
O911	O91	0.613370	0.808280	0.237570
O921	O92	0.574240	0.772870	0.303820
O931	O93	0.676940	0.029230	0.643550
O941	O94	0.693390	0.989930	0.717410
O951	O95	0.585470	0.841030	0.758430
O961	O96	0.559870	0.791590	0.696670
O971	O97	0.277090	0.557950	0.321910
O981	O98	0.328770	0.575160	0.258580
O991	O99	0.474190	0.688340	0.287120
O1001	O100	0.509330	0.695440	0.363280
O1011	O101	0.284040	0.576830	0.714600
O1021	O102	0.322580	0.616070	0.779160
O1031	O103	0.482120	0.713760	0.736540
O1041	O104	0.522190	0.693620	0.664160
O1051	O105	0.297900	0.469800	0.237100
O1061	O106	0.274900	0.496000	0.160600
O1071	O107	0.386630	0.308280	0.262430
O1081	O108	0.425760	0.272870	0.196180
O1091	O109	0.323060	0.529230	0.856450
O1101	O110	0.306610	0.489930	0.782590
O1111	O111	0.414530	0.341030	0.741570
O1121	O112	0.440130	0.291590	0.803330
O1131	O113	0.222910	0.942050	0.321910
O1141	O114	0.171230	0.924840	0.258580
O1151	O115	0.025810	0.811660	0.287120
O1161	O116	0.990670	0.804560	0.363280
O1171	O117	0.215960	0.923170	0.714600
O1181	O118	0.177420	0.883930	0.779160
O1191	O119	0.017880	0.786240	0.736540
O1201	O120	0.977810	0.806380	0.664160
O1211	O121	0.202100	0.030200	0.237100
O1221	O122	0.225100	0.004000	0.160600
O1231	O123	0.113370	0.191720	0.262430
O1241	O124	0.074240	0.227130	0.196180
O1251	O125	0.176940	0.970770	0.856450
O1261	O126	0.193390	0.010070	0.782590
O1271	O127	0.085470	0.158970	0.741570
O1281	O128	0.059870	0.208410	0.803330
