data_ZERQOE_clean_PM
_symmetry_space_group_name_H-M	'P1'
_cell_length_a	5.541800
_cell_length_b	11.883100
_cell_length_c	22.651500
_cell_angle_alpha	101.607000
_cell_angle_beta	90.000000
_cell_angle_gamma	90.000000
_symmetry_Int_Tables_number 1

loop_
_symmetry_equiv_pos_as_xyz
'x,y,z'

loop_
_atom_site_label
_atom_site_type_symbol
_atom_site_fract_x
_atom_site_fract_y
_atom_site_fract_z
Ca11	Ca1	0.765260	0.602270	0.042090
Ca21	Ca2	0.265260	0.897730	0.457910
Ca31	Ca3	0.234740	0.397730	0.957910
Ca41	Ca4	0.734740	0.102270	0.542090
H11	H1	0.212300	0.107500	0.119000
H21	H2	0.211700	0.977600	0.214100
H31	H3	0.573000	0.824000	0.166000
H41	H4	0.123600	0.279800	0.090200
H51	H5	0.489200	0.827300	0.267200
H61	H6	0.131000	0.974300	0.314500
H71	H7	0.561500	0.983400	0.059000
H81	H8	0.472700	0.157500	0.031800
H91	H9	0.712300	0.392500	0.381000
H101	H10	0.711700	0.522400	0.285900
H111	H11	0.073000	0.676000	0.334000
H121	H12	0.623600	0.220200	0.409800
H131	H13	0.989200	0.672700	0.232800
H141	H14	0.631000	0.525700	0.185500
H151	H15	0.061500	0.516600	0.441000
H161	H16	0.972700	0.342500	0.468200
H171	H17	0.787700	0.892500	0.881000
H181	H18	0.788300	0.022400	0.785900
H191	H19	0.427000	0.176000	0.834000
H201	H20	0.876400	0.720200	0.909800
H211	H21	0.510800	0.172700	0.732800
H221	H22	0.869000	0.025700	0.685500
H231	H23	0.438500	0.016600	0.941000
H241	H24	0.527300	0.842500	0.968200
H251	H25	0.287700	0.607500	0.619000
H261	H26	0.288300	0.477600	0.714100
H271	H27	0.927000	0.324000	0.666000
H281	H28	0.376400	0.779800	0.590200
H291	H29	0.010800	0.327300	0.767200
H301	H30	0.369000	0.474300	0.814500
H311	H31	0.938500	0.483400	0.559000
H321	H32	0.027300	0.657500	0.531800
C11	C1	0.754200	0.891940	0.365720
C21	C2	0.732900	0.344090	0.035830
C31	C3	0.066100	0.117200	0.100490
C41	C4	0.069000	0.945700	0.224760
C51	C5	0.684100	0.854100	0.195750
C61	C6	0.902600	0.898610	0.181050
C71	C7	0.011900	0.220200	0.083610
C81	C8	0.635400	0.855660	0.256340
C91	C9	0.803300	0.899270	0.300590
C101	C10	0.791600	0.234700	0.056890
C111	C11	0.019200	0.944600	0.284820
C121	C12	0.898200	0.028720	0.089340
C131	C13	0.674500	0.042500	0.064620
C141	C14	0.622200	0.146700	0.048410
C151	C15	0.254200	0.608060	0.134280
C161	C16	0.232900	0.155910	0.464170
C171	C17	0.566100	0.382800	0.399510
C181	C18	0.569000	0.554300	0.275240
C191	C19	0.184100	0.645900	0.304250
C201	C20	0.402600	0.601390	0.318950
C211	C21	0.511900	0.279800	0.416390
C221	C22	0.135400	0.644340	0.243660
C231	C23	0.303300	0.600730	0.199410
C241	C24	0.291600	0.265300	0.443110
C251	C25	0.519200	0.555400	0.215180
C261	C26	0.398200	0.471280	0.410660
C271	C27	0.174500	0.457500	0.435380
C281	C28	0.122200	0.353300	0.451590
C291	C29	0.245800	0.108060	0.634280
C301	C30	0.267100	0.655910	0.964170
C311	C31	0.933900	0.882800	0.899510
C321	C32	0.931000	0.054300	0.775240
C331	C33	0.315900	0.145900	0.804250
C341	C34	0.097400	0.101390	0.818950
C351	C35	0.988100	0.779800	0.916390
C361	C36	0.364600	0.144340	0.743660
C371	C37	0.196700	0.100730	0.699410
C381	C38	0.208400	0.765300	0.943110
C391	C39	0.980800	0.055400	0.715180
C401	C40	0.101800	0.971280	0.910660
C411	C41	0.325500	0.957500	0.935380
C421	C42	0.377800	0.853300	0.951590
C431	C43	0.745800	0.391940	0.865720
C441	C44	0.767100	0.844090	0.535830
C451	C45	0.433900	0.617200	0.600490
C461	C46	0.431000	0.445700	0.724760
C471	C47	0.815900	0.354100	0.695750
C481	C48	0.597400	0.398610	0.681050
C491	C49	0.488100	0.720200	0.583610
C501	C50	0.864600	0.355660	0.756340
C511	C51	0.696700	0.399270	0.800590
C521	C52	0.708400	0.734700	0.556890
C531	C53	0.480800	0.444600	0.784820
C541	C54	0.601800	0.528720	0.589340
C551	C55	0.825500	0.542500	0.564620
C561	C56	0.877800	0.646700	0.548410
S11	S1	0.975820	0.892860	0.104710
S21	S2	0.475820	0.607140	0.395290
S31	S3	0.024180	0.107140	0.895290
S41	S4	0.524180	0.392860	0.604710
O11	O1	0.516600	0.368400	0.029710
O21	O2	0.232700	0.879360	0.098160
O31	O3	0.817200	0.810140	0.067860
O41	O4	0.538600	0.882100	0.380090
O51	O5	0.908200	0.407270	0.027010
O61	O6	0.933600	0.893510	0.399090
O71	O7	0.016600	0.131600	0.470290
O81	O8	0.732700	0.620640	0.401840
O91	O9	0.317200	0.689860	0.432140
O101	O10	0.038600	0.617900	0.119910
O111	O11	0.408200	0.092730	0.472990
O121	O12	0.433600	0.606490	0.100910
O131	O13	0.483400	0.631600	0.970290
O141	O14	0.767300	0.120640	0.901840
O151	O15	0.182800	0.189860	0.932140
O161	O16	0.461400	0.117900	0.619910
O171	O17	0.091800	0.592730	0.972990
O181	O18	0.066400	0.106490	0.600910
O191	O19	0.983400	0.868400	0.529710
O201	O20	0.267300	0.379360	0.598160
O211	O21	0.682800	0.310140	0.567860
O221	O22	0.961400	0.382100	0.880090
O231	O23	0.591800	0.907270	0.527010
O241	O24	0.566400	0.393510	0.899090
