data_ZEXKUK_clean_PM
_symmetry_space_group_name_H-M	'P1'
_cell_length_a	9.299200
_cell_length_b	11.519000
_cell_length_c	13.262000
_cell_angle_alpha	90.000000
_cell_angle_beta	90.913000
_cell_angle_gamma	90.000000
_symmetry_Int_Tables_number 1

loop_
_symmetry_equiv_pos_as_xyz
'x,y,z'

loop_
_atom_site_label
_atom_site_type_symbol
_atom_site_fract_x
_atom_site_fract_y
_atom_site_fract_z
Co11	Co1	0.250000	0.449700	0.500000
Co21	Co2	0.750000	0.550300	0.500000
H11	H1	0.761600	0.537400	0.234000
H21	H2	0.664300	0.453900	0.089500
H31	H3	0.974500	0.211800	0.096900
H41	H4	0.071100	0.295600	0.241400
H51	H5	0.068600	0.237900	0.425600
H61	H6	0.068800	0.039500	0.416700
H71	H7	0.150000	0.860400	0.365200
H81	H8	0.156100	0.662000	0.368100
H91	H9	0.738400	0.537400	0.766000
H101	H10	0.835700	0.453900	0.910500
H111	H11	0.525500	0.211800	0.903100
H121	H12	0.428900	0.295600	0.758600
H131	H13	0.431400	0.237900	0.574400
H141	H14	0.431200	0.039500	0.583300
H151	H15	0.350000	0.860400	0.634800
H161	H16	0.343900	0.662000	0.631900
H171	H17	0.238400	0.462600	0.766000
H181	H18	0.335700	0.546100	0.910500
H191	H19	0.025500	0.788200	0.903100
H201	H20	0.928900	0.704400	0.758600
H211	H21	0.931400	0.762100	0.574400
H221	H22	0.931200	0.960500	0.583300
H231	H23	0.850000	0.139600	0.634800
H241	H24	0.843900	0.338000	0.631900
H251	H25	0.261600	0.462600	0.234000
H261	H26	0.164300	0.546100	0.089500
H271	H27	0.474500	0.788200	0.096900
H281	H28	0.571100	0.704400	0.241400
H291	H29	0.568600	0.762100	0.425600
H301	H30	0.568800	0.960500	0.416700
H311	H31	0.650000	0.139600	0.365200
H321	H32	0.656100	0.338000	0.368100
C11	C1	0.983300	0.475900	0.351290
C21	C2	0.925600	0.424210	0.253870
C31	C3	0.804000	0.471500	0.206930
C41	C4	0.745400	0.421800	0.120490
C51	C5	0.809000	0.324200	0.081090
C61	C6	0.931300	0.276800	0.125050
C71	C7	0.988900	0.327200	0.211450
C81	C8	0.144600	0.197600	0.455560
C91	C9	0.142400	0.077600	0.451650
C101	C10	0.191300	0.822200	0.420190
C111	C11	0.194600	0.702300	0.422980
C121	C12	0.516700	0.475900	0.648710
C131	C13	0.574400	0.424210	0.746130
C141	C14	0.696000	0.471500	0.793070
C151	C15	0.754600	0.421800	0.879510
C161	C16	0.691000	0.324200	0.918910
C171	C17	0.568700	0.276800	0.874950
C181	C18	0.511100	0.327200	0.788550
C191	C19	0.355400	0.197600	0.544440
C201	C20	0.357600	0.077600	0.548350
C211	C21	0.308700	0.822200	0.579810
C221	C22	0.305400	0.702300	0.577020
C231	C23	0.016700	0.524100	0.648710
C241	C24	0.074400	0.575790	0.746130
C251	C25	0.196000	0.528500	0.793070
C261	C26	0.254600	0.578200	0.879510
C271	C27	0.191000	0.675800	0.918910
C281	C28	0.068700	0.723200	0.874950
C291	C29	0.011100	0.672800	0.788550
C301	C30	0.855400	0.802400	0.544440
C311	C31	0.857600	0.922400	0.548350
C321	C32	0.808700	0.177800	0.579810
C331	C33	0.805400	0.297700	0.577020
C341	C34	0.483300	0.524100	0.351290
C351	C35	0.425600	0.575790	0.253870
C361	C36	0.304000	0.528500	0.206930
C371	C37	0.245400	0.578200	0.120490
C381	C38	0.309000	0.675800	0.081090
C391	C39	0.431300	0.723200	0.125050
C401	C40	0.488900	0.672800	0.211450
C411	C41	0.644600	0.802400	0.455560
C421	C42	0.642400	0.922400	0.451650
C431	C43	0.691300	0.177800	0.420190
C441	C44	0.694600	0.297700	0.422980
C451	C45	0.250000	0.014000	0.500000
C461	C46	0.250000	0.885400	0.500000
C471	C47	0.750000	0.986000	0.500000
C481	C48	0.750000	0.114600	0.500000
N11	N1	0.250000	0.258700	0.500000
N21	N2	0.250000	0.640800	0.500000
N31	N3	0.750000	0.741300	0.500000
N41	N4	0.750000	0.359200	0.500000
O11	O1	0.103310	0.437520	0.380900
O21	O2	0.911220	0.553110	0.393290
O31	O3	0.396690	0.437520	0.619100
O41	O4	0.588780	0.553110	0.606710
O51	O5	0.896690	0.562480	0.619100
O61	O6	0.088780	0.446890	0.606710
O71	O7	0.603310	0.562480	0.380900
O81	O8	0.411220	0.446890	0.393290
O91	O9	0.750000	0.263200	0.000000
O101	O10	0.250000	0.736800	0.000000
