data_ZEZFIV_clean_PM
_symmetry_space_group_name_H-M	'P1'
_cell_length_a	22.839000
_cell_length_b	22.839000
_cell_length_c	33.078000
_cell_angle_alpha	90.000000
_cell_angle_beta	90.000000
_cell_angle_gamma	90.000000
_symmetry_Int_Tables_number 1

loop_
_symmetry_equiv_pos_as_xyz
'x,y,z'

loop_
_atom_site_label
_atom_site_type_symbol
_atom_site_fract_x
_atom_site_fract_y
_atom_site_fract_z
Zn11	Zn1	0.423610	0.041000	0.607360
Na11	Na1	0.469160	0.933630	0.557160
Na21	Na2	0.460390	0.891180	0.457200
C11	C1	0.806400	0.269300	0.345760
C21	C2	0.774000	0.272000	0.383370
H11	H1	0.738700	0.252400	0.386600
C31	C3	0.798300	0.305500	0.414510
C41	C4	0.851500	0.333800	0.409650
H21	H2	0.866700	0.356200	0.430700
C51	C5	0.882700	0.329100	0.373400
C61	C6	0.858900	0.298700	0.342050
H31	H3	0.878600	0.297800	0.317500
C71	C7	0.510930	0.088550	0.501240
C81	C8	0.552900	0.130900	0.494560
H41	H4	0.564100	0.155800	0.515400
C91	C9	0.578200	0.136400	0.457200
C101	C10	0.560900	0.096500	0.425990
H51	H5	0.578900	0.098400	0.400800
C111	C11	0.517740	0.055330	0.432820
C121	C12	0.493520	0.051670	0.470170
H61	H6	0.464600	0.023900	0.475000
C131	C13	0.501640	0.015750	0.398580
C141	C14	0.485260	0.085100	0.544000
C151	C15	0.939920	0.361900	0.367690
C161	C16	0.779000	0.236500	0.310960
C171	C17	0.725900	0.281100	0.469920
C181	C18	0.655600	0.213300	0.469640
C191	C19	0.677200	0.261300	0.527040
C201	C20	0.830300	0.390500	0.615220
C211	C21	0.768300	0.365400	0.619890
C221	C22	0.732800	0.382500	0.654290
H71	H7	0.749100	0.405300	0.674700
C231	C23	0.678300	0.366100	0.656700
C241	C24	0.743400	0.331500	0.590940
H81	H8	0.765700	0.322800	0.568200
C251	C25	0.655100	0.331800	0.623600
H91	H9	0.615000	0.324900	0.623300
C261	C26	0.687300	0.308800	0.592840
C271	C27	0.634600	0.384500	0.688400
N11	N1	0.772900	0.310200	0.453200
H101	H10	0.789400	0.335200	0.468900
N21	N2	0.718000	0.293400	0.509970
N31	N3	0.698400	0.240400	0.448360
N41	N4	0.621100	0.179500	0.445740
H111	H11	0.625500	0.184500	0.420200
N51	N5	0.640590	0.223600	0.507500
N61	N6	0.662900	0.271300	0.566020
H121	H12	0.634100	0.250800	0.575100
O11	O1	0.526380	0.022400	0.365800
O21	O2	0.538300	0.916720	0.505750
O31	O3	0.465190	0.975580	0.405210
O41	O4	0.494700	0.841400	0.588200
H131	H13	0.488300	0.814600	0.572200
O51	O5	0.492660	0.121990	0.569000
O61	O6	0.391800	0.933920	0.501970
O71	O7	0.453870	0.039530	0.550130
O81	O8	0.968940	0.353950	0.335730
O91	O9	0.959040	0.389380	0.397580
O101	O10	0.852950	0.411210	0.646390
O111	O11	0.852620	0.390180	0.581530
O121	O12	0.737000	0.208600	0.316070
O131	O13	0.808200	0.239000	0.280020
O141	O14	0.587500	0.361400	0.694060
O151	O15	0.661900	0.414100	0.717800
Zn21	Zn2	0.576390	0.959000	0.107360
Na31	Na3	0.530840	0.066370	0.057160
Na41	Na4	0.539610	0.108820	0.957200
C281	C28	0.193600	0.730700	0.845760
C291	C29	0.226000	0.728000	0.883370
H141	H14	0.261300	0.747600	0.886600
C301	C30	0.201700	0.694500	0.914510
C311	C31	0.148500	0.666200	0.909650
H151	H15	0.133300	0.643800	0.930700
C321	C32	0.117300	0.670900	0.873400
C331	C33	0.141100	0.701300	0.842050
H161	H16	0.121400	0.702200	0.817500
C341	C34	0.489070	0.911450	0.001240
C351	C35	0.447100	0.869100	0.994560
H171	H17	0.435900	0.844200	0.015400
C361	C36	0.421800	0.863600	0.957200
C371	C37	0.439100	0.903500	0.925990
H181	H18	0.421100	0.901600	0.900800
C381	C38	0.482260	0.944670	0.932820
C391	C39	0.506480	0.948330	0.970170
H191	H19	0.535400	0.976100	0.975000
C401	C40	0.498360	0.984250	0.898580
C411	C41	0.514740	0.914900	0.044000
C421	C42	0.060080	0.638100	0.867690
C431	C43	0.221000	0.763500	0.810960
C441	C44	0.274100	0.718900	0.969920
C451	C45	0.344400	0.786700	0.969640
C461	C46	0.322800	0.738700	0.027040
C471	C47	0.169700	0.609500	0.115220
C481	C48	0.231700	0.634600	0.119890
C491	C49	0.267200	0.617500	0.154290
H201	H20	0.250900	0.594700	0.174700
C501	C50	0.321700	0.633900	0.156700
C511	C51	0.256600	0.668500	0.090940
H211	H21	0.234300	0.677200	0.068200
C521	C52	0.344900	0.668200	0.123600
H221	H22	0.385000	0.675100	0.123300
C531	C53	0.312700	0.691200	0.092840
C541	C54	0.365400	0.615500	0.188400
N71	N7	0.227100	0.689800	0.953200
H231	H23	0.210600	0.664800	0.968900
N81	N8	0.282000	0.706600	0.009970
N91	N9	0.301600	0.759600	0.948360
N101	N10	0.378900	0.820500	0.945740
H241	H24	0.374500	0.815500	0.920200
N111	N11	0.359410	0.776400	0.007500
N121	N12	0.337100	0.728700	0.066020
H251	H25	0.365900	0.749200	0.075100
O161	O16	0.473620	0.977600	0.865800
O171	O17	0.461700	0.083280	0.005750
O181	O18	0.534810	0.024420	0.905210
O191	O19	0.505300	0.158600	0.088200
H261	H26	0.511700	0.185400	0.072200
O201	O20	0.507340	0.878010	0.069000
O211	O21	0.608200	0.066080	0.001970
O221	O22	0.546130	0.960470	0.050130
O231	O23	0.031060	0.646050	0.835730
O241	O24	0.040960	0.610620	0.897580
O251	O25	0.147050	0.588790	0.146390
O261	O26	0.147380	0.609820	0.081530
O271	O27	0.263000	0.791400	0.816070
O281	O28	0.191800	0.761000	0.780020
O291	O29	0.412500	0.638600	0.194060
O301	O30	0.338100	0.585900	0.217800
Zn31	Zn3	0.459000	0.923610	0.357360
Na51	Na5	0.566370	0.969160	0.307160
Na61	Na6	0.608820	0.960390	0.207200
C551	C55	0.230700	0.306400	0.095760
C561	C56	0.228000	0.274000	0.133370
H271	H27	0.247600	0.238700	0.136600
C571	C57	0.194500	0.298300	0.164510
C581	C58	0.166200	0.351500	0.159650
H281	H28	0.143800	0.366700	0.180700
C591	C59	0.170900	0.382700	0.123400
C601	C60	0.201300	0.358900	0.092050
H291	H29	0.202200	0.378600	0.067500
C611	C61	0.411450	0.010930	0.251240
C621	C62	0.369100	0.052900	0.244560
H301	H30	0.344200	0.064100	0.265400
C631	C63	0.363600	0.078200	0.207200
C641	C64	0.403500	0.060900	0.175990
H311	H31	0.401600	0.078900	0.150800
C651	C65	0.444670	0.017740	0.182820
C661	C66	0.448330	0.993520	0.220170
H321	H32	0.476100	0.964600	0.225000
C671	C67	0.484250	0.001640	0.148580
C681	C68	0.414900	0.985260	0.294000
C691	C69	0.138100	0.439920	0.117690
C701	C70	0.263500	0.279000	0.060960
C711	C71	0.218900	0.225900	0.219920
C721	C72	0.286700	0.155600	0.219640
C731	C73	0.238700	0.177200	0.277040
C741	C74	0.109500	0.330300	0.365220
C751	C75	0.134600	0.268300	0.369890
C761	C76	0.117500	0.232800	0.404290
H331	H33	0.094700	0.249100	0.424700
C771	C77	0.133900	0.178300	0.406700
C781	C78	0.168500	0.243400	0.340940
H341	H34	0.177200	0.265700	0.318200
C791	C79	0.168200	0.155100	0.373600
H351	H35	0.175100	0.115000	0.373300
C801	C80	0.191200	0.187300	0.342840
C811	C81	0.115500	0.134600	0.438400
N131	N13	0.189800	0.272900	0.203200
H361	H36	0.164800	0.289400	0.218900
N141	N14	0.206600	0.218000	0.259970
N151	N15	0.259600	0.198400	0.198360
N161	N16	0.320500	0.121100	0.195740
H371	H37	0.315500	0.125500	0.170200
N171	N17	0.276400	0.140590	0.257500
N181	N18	0.228700	0.162900	0.316020
H381	H38	0.249200	0.134100	0.325100
O311	O31	0.477600	0.026380	0.115800
O321	O32	0.583280	0.038300	0.255750
O331	O33	0.524420	0.965190	0.155210
O341	O34	0.658600	0.994700	0.338200
H391	H39	0.685400	0.988300	0.322200
O351	O35	0.378010	0.992660	0.319000
O361	O36	0.566080	0.891800	0.251970
O371	O37	0.460470	0.953870	0.300130
O381	O38	0.146050	0.468940	0.085730
O391	O39	0.110620	0.459040	0.147580
O401	O40	0.088790	0.352950	0.396390
O411	O41	0.109820	0.352620	0.331530
O421	O42	0.291400	0.237000	0.066070
O431	O43	0.261000	0.308200	0.030020
O441	O44	0.138600	0.087500	0.444060
O451	O45	0.085900	0.161900	0.467800
Zn41	Zn4	0.541000	0.076390	0.857360
Na71	Na7	0.433630	0.030840	0.807160
Na81	Na8	0.391180	0.039610	0.707200
C821	C82	0.769300	0.693600	0.595760
C831	C83	0.772000	0.726000	0.633370
H401	H40	0.752400	0.761300	0.636600
C841	C84	0.805500	0.701700	0.664510
C851	C85	0.833800	0.648500	0.659650
H411	H41	0.856200	0.633300	0.680700
C861	C86	0.829100	0.617300	0.623400
C871	C87	0.798700	0.641100	0.592050
H421	H42	0.797800	0.621400	0.567500
C881	C88	0.588550	0.989070	0.751240
C891	C89	0.630900	0.947100	0.744560
H431	H43	0.655800	0.935900	0.765400
C901	C90	0.636400	0.921800	0.707200
C911	C91	0.596500	0.939100	0.675990
H441	H44	0.598400	0.921100	0.650800
C921	C92	0.555330	0.982260	0.682820
C931	C93	0.551670	0.006480	0.720170
H451	H45	0.523900	0.035400	0.725000
C941	C94	0.515750	0.998360	0.648580
C951	C95	0.585100	0.014740	0.794000
C961	C96	0.861900	0.560080	0.617690
C971	C97	0.736500	0.721000	0.560960
C981	C98	0.781100	0.774100	0.719920
C991	C99	0.713300	0.844400	0.719640
C1001	C100	0.761300	0.822800	0.777040
C1011	C101	0.890500	0.669700	0.865220
C1021	C102	0.865400	0.731700	0.869890
C1031	C103	0.882500	0.767200	0.904290
H461	H46	0.905300	0.750900	0.924700
C1041	C104	0.866100	0.821700	0.906700
C1051	C105	0.831500	0.756600	0.840940
H471	H47	0.822800	0.734300	0.818200
C1061	C106	0.831800	0.844900	0.873600
H481	H48	0.824900	0.885000	0.873300
C1071	C107	0.808800	0.812700	0.842840
C1081	C108	0.884500	0.865400	0.938400
N191	N19	0.810200	0.727100	0.703200
H491	H49	0.835200	0.710600	0.718900
N201	N20	0.793400	0.782000	0.759970
N211	N21	0.740400	0.801600	0.698360
N221	N22	0.679500	0.878900	0.695740
H501	H50	0.684500	0.874500	0.670200
N231	N23	0.723600	0.859410	0.757500
N241	N24	0.771300	0.837100	0.816020
H511	H51	0.750800	0.865900	0.825100
O461	O46	0.522400	0.973620	0.615800
O471	O47	0.416720	0.961700	0.755750
O481	O48	0.475580	0.034810	0.655210
O491	O49	0.341400	0.005300	0.838200
H521	H52	0.314600	0.011700	0.822200
O501	O50	0.621990	0.007340	0.819000
O511	O51	0.433920	0.108200	0.751970
O521	O52	0.539530	0.046130	0.800130
O531	O53	0.853950	0.531060	0.585730
O541	O54	0.889380	0.540960	0.647580
O551	O55	0.911210	0.647050	0.896390
O561	O56	0.890180	0.647380	0.831530
O571	O57	0.708600	0.763000	0.566070
O581	O58	0.739000	0.691800	0.530020
O591	O59	0.861400	0.912500	0.944060
O601	O60	0.914100	0.838100	0.967800
Zn51	Zn5	0.076390	0.541000	0.142640
Na91	Na9	0.030840	0.433630	0.192840
Na101	Na10	0.039610	0.391180	0.292800
C1091	C109	0.693600	0.769300	0.404240
C1101	C110	0.726000	0.772000	0.366630
H531	H53	0.761300	0.752400	0.363400
C1111	C111	0.701700	0.805500	0.335490
C1121	C112	0.648500	0.833800	0.340350
H541	H54	0.633300	0.856200	0.319300
C1131	C113	0.617300	0.829100	0.376600
C1141	C114	0.641100	0.798700	0.407950
H551	H55	0.621400	0.797800	0.432500
C1151	C115	0.989070	0.588550	0.248760
C1161	C116	0.947100	0.630900	0.255440
H561	H56	0.935900	0.655800	0.234600
C1171	C117	0.921800	0.636400	0.292800
C1181	C118	0.939100	0.596500	0.324010
H571	H57	0.921100	0.598400	0.349200
C1191	C119	0.982260	0.555330	0.317180
C1201	C120	0.006480	0.551670	0.279830
H581	H58	0.035400	0.523900	0.275000
C1211	C121	0.998360	0.515750	0.351420
C1221	C122	0.014740	0.585100	0.206000
C1231	C123	0.560080	0.861900	0.382310
C1241	C124	0.721000	0.736500	0.439040
C1251	C125	0.774100	0.781100	0.280080
C1261	C126	0.844400	0.713300	0.280360
C1271	C127	0.822800	0.761300	0.222960
C1281	C128	0.669700	0.890500	0.134780
C1291	C129	0.731700	0.865400	0.130110
C1301	C130	0.767200	0.882500	0.095710
H591	H59	0.750900	0.905300	0.075300
C1311	C131	0.821700	0.866100	0.093300
C1321	C132	0.756600	0.831500	0.159060
H601	H60	0.734300	0.822800	0.181800
C1331	C133	0.844900	0.831800	0.126400
H611	H61	0.885000	0.824900	0.126700
C1341	C134	0.812700	0.808800	0.157160
C1351	C135	0.865400	0.884500	0.061600
N251	N25	0.727100	0.810200	0.296800
H621	H62	0.710600	0.835200	0.281100
N261	N26	0.782000	0.793400	0.240030
N271	N27	0.801600	0.740400	0.301640
N281	N28	0.878900	0.679500	0.304260
H631	H63	0.874500	0.684500	0.329800
N291	N29	0.859410	0.723600	0.242500
N301	N30	0.837100	0.771300	0.183980
H641	H64	0.865900	0.750800	0.174900
O611	O61	0.973620	0.522400	0.384200
O621	O62	0.961700	0.416720	0.244250
O631	O63	0.034810	0.475580	0.344790
O641	O64	0.005300	0.341400	0.161800
H651	H65	0.011700	0.314600	0.177800
O651	O65	0.007340	0.621990	0.181000
O661	O66	0.108200	0.433920	0.248030
O671	O67	0.046130	0.539530	0.199870
O681	O68	0.531060	0.853950	0.414270
O691	O69	0.540960	0.889380	0.352420
O701	O70	0.647050	0.911210	0.103610
O711	O71	0.647380	0.890180	0.168470
O721	O72	0.763000	0.708600	0.433930
O731	O73	0.691800	0.739000	0.469980
O741	O74	0.912500	0.861400	0.055940
O751	O75	0.838100	0.914100	0.032200
Zn61	Zn6	0.923610	0.459000	0.642640
Na111	Na11	0.969160	0.566370	0.692840
Na121	Na12	0.960390	0.608820	0.792800
C1361	C136	0.306400	0.230700	0.904240
C1371	C137	0.274000	0.228000	0.866630
H661	H66	0.238700	0.247600	0.863400
C1381	C138	0.298300	0.194500	0.835490
C1391	C139	0.351500	0.166200	0.840350
H671	H67	0.366700	0.143800	0.819300
C1401	C140	0.382700	0.170900	0.876600
C1411	C141	0.358900	0.201300	0.907950
H681	H68	0.378600	0.202200	0.932500
C1421	C142	0.010930	0.411450	0.748760
C1431	C143	0.052900	0.369100	0.755440
H691	H69	0.064100	0.344200	0.734600
C1441	C144	0.078200	0.363600	0.792800
C1451	C145	0.060900	0.403500	0.824010
H701	H70	0.078900	0.401600	0.849200
C1461	C146	0.017740	0.444670	0.817180
C1471	C147	0.993520	0.448330	0.779830
H711	H71	0.964600	0.476100	0.775000
C1481	C148	0.001640	0.484250	0.851420
C1491	C149	0.985260	0.414900	0.706000
C1501	C150	0.439920	0.138100	0.882310
C1511	C151	0.279000	0.263500	0.939040
C1521	C152	0.225900	0.218900	0.780080
C1531	C153	0.155600	0.286700	0.780360
C1541	C154	0.177200	0.238700	0.722960
C1551	C155	0.330300	0.109500	0.634780
C1561	C156	0.268300	0.134600	0.630110
C1571	C157	0.232800	0.117500	0.595710
H721	H72	0.249100	0.094700	0.575300
C1581	C158	0.178300	0.133900	0.593300
C1591	C159	0.243400	0.168500	0.659060
H731	H73	0.265700	0.177200	0.681800
C1601	C160	0.155100	0.168200	0.626400
H741	H74	0.115000	0.175100	0.626700
C1611	C161	0.187300	0.191200	0.657160
C1621	C162	0.134600	0.115500	0.561600
N311	N31	0.272900	0.189800	0.796800
H751	H75	0.289400	0.164800	0.781100
N321	N32	0.218000	0.206600	0.740030
N331	N33	0.198400	0.259600	0.801640
N341	N34	0.121100	0.320500	0.804260
H761	H76	0.125500	0.315500	0.829800
N351	N35	0.140590	0.276400	0.742500
N361	N36	0.162900	0.228700	0.683980
H771	H77	0.134100	0.249200	0.674900
O761	O76	0.026380	0.477600	0.884200
O771	O77	0.038300	0.583280	0.744250
O781	O78	0.965190	0.524420	0.844790
O791	O79	0.994700	0.658600	0.661800
H781	H78	0.988300	0.685400	0.677800
O801	O80	0.992660	0.378010	0.681000
O811	O81	0.891800	0.566080	0.748030
O821	O82	0.953870	0.460470	0.699870
O831	O83	0.468940	0.146050	0.914270
O841	O84	0.459040	0.110620	0.852420
O851	O85	0.352950	0.088790	0.603610
O861	O86	0.352620	0.109820	0.668470
O871	O87	0.237000	0.291400	0.933930
O881	O88	0.308200	0.261000	0.969980
O891	O89	0.087500	0.138600	0.555940
O901	O90	0.161900	0.085900	0.532200
Zn71	Zn7	0.041000	0.423610	0.392640
Na131	Na13	0.933630	0.469160	0.442840
Na141	Na14	0.891180	0.460390	0.542800
C1631	C163	0.269300	0.806400	0.654240
C1641	C164	0.272000	0.774000	0.616630
H791	H79	0.252400	0.738700	0.613400
C1651	C165	0.305500	0.798300	0.585490
C1661	C166	0.333800	0.851500	0.590350
H801	H80	0.356200	0.866700	0.569300
C1671	C167	0.329100	0.882700	0.626600
C1681	C168	0.298700	0.858900	0.657950
H811	H81	0.297800	0.878600	0.682500
C1691	C169	0.088550	0.510930	0.498760
C1701	C170	0.130900	0.552900	0.505440
H821	H82	0.155800	0.564100	0.484600
C1711	C171	0.136400	0.578200	0.542800
C1721	C172	0.096500	0.560900	0.574010
H831	H83	0.098400	0.578900	0.599200
C1731	C173	0.055330	0.517740	0.567180
C1741	C174	0.051670	0.493520	0.529830
H841	H84	0.023900	0.464600	0.525000
C1751	C175	0.015750	0.501640	0.601420
C1761	C176	0.085100	0.485260	0.456000
C1771	C177	0.361900	0.939920	0.632310
C1781	C178	0.236500	0.779000	0.689040
C1791	C179	0.281100	0.725900	0.530080
C1801	C180	0.213300	0.655600	0.530360
C1811	C181	0.261300	0.677200	0.472960
C1821	C182	0.390500	0.830300	0.384780
C1831	C183	0.365400	0.768300	0.380110
C1841	C184	0.382500	0.732800	0.345710
H851	H85	0.405300	0.749100	0.325300
C1851	C185	0.366100	0.678300	0.343300
C1861	C186	0.331500	0.743400	0.409060
H861	H86	0.322800	0.765700	0.431800
C1871	C187	0.331800	0.655100	0.376400
H871	H87	0.324900	0.615000	0.376700
C1881	C188	0.308800	0.687300	0.407160
C1891	C189	0.384500	0.634600	0.311600
N371	N37	0.310200	0.772900	0.546800
H881	H88	0.335200	0.789400	0.531100
N381	N38	0.293400	0.718000	0.490030
N391	N39	0.240400	0.698400	0.551640
N401	N40	0.179500	0.621100	0.554260
H891	H89	0.184500	0.625500	0.579800
N411	N41	0.223600	0.640590	0.492500
N421	N42	0.271300	0.662900	0.433980
H901	H90	0.250800	0.634100	0.424900
O911	O91	0.022400	0.526380	0.634200
O921	O92	0.916720	0.538300	0.494250
O931	O93	0.975580	0.465190	0.594790
O941	O94	0.841400	0.494700	0.411800
H911	H91	0.814600	0.488300	0.427800
O951	O95	0.121990	0.492660	0.431000
O961	O96	0.933920	0.391800	0.498030
O971	O97	0.039530	0.453870	0.449870
O981	O98	0.353950	0.968940	0.664270
O991	O99	0.389380	0.959040	0.602420
O1001	O100	0.411210	0.852950	0.353610
O1011	O101	0.390180	0.852620	0.418470
O1021	O102	0.208600	0.737000	0.683930
O1031	O103	0.239000	0.808200	0.719980
O1041	O104	0.361400	0.587500	0.305940
O1051	O105	0.414100	0.661900	0.282200
Zn81	Zn8	0.959000	0.576390	0.892640
Na151	Na15	0.066370	0.530840	0.942840
Na161	Na16	0.108820	0.539610	0.042800
C1901	C190	0.730700	0.193600	0.154240
C1911	C191	0.728000	0.226000	0.116630
H921	H92	0.747600	0.261300	0.113400
C1921	C192	0.694500	0.201700	0.085490
C1931	C193	0.666200	0.148500	0.090350
H931	H93	0.643800	0.133300	0.069300
C1941	C194	0.670900	0.117300	0.126600
C1951	C195	0.701300	0.141100	0.157950
H941	H94	0.702200	0.121400	0.182500
C1961	C196	0.911450	0.489070	0.998760
C1971	C197	0.869100	0.447100	0.005440
H951	H95	0.844200	0.435900	0.984600
C1981	C198	0.863600	0.421800	0.042800
C1991	C199	0.903500	0.439100	0.074010
H961	H96	0.901600	0.421100	0.099200
C2001	C200	0.944670	0.482260	0.067180
C2011	C201	0.948330	0.506480	0.029830
H971	H97	0.976100	0.535400	0.025000
C2021	C202	0.984250	0.498360	0.101420
C2031	C203	0.914900	0.514740	0.956000
C2041	C204	0.638100	0.060080	0.132310
C2051	C205	0.763500	0.221000	0.189040
C2061	C206	0.718900	0.274100	0.030080
C2071	C207	0.786700	0.344400	0.030360
C2081	C208	0.738700	0.322800	0.972960
C2091	C209	0.609500	0.169700	0.884780
C2101	C210	0.634600	0.231700	0.880110
C2111	C211	0.617500	0.267200	0.845710
H981	H98	0.594700	0.250900	0.825300
C2121	C212	0.633900	0.321700	0.843300
C2131	C213	0.668500	0.256600	0.909060
H991	H99	0.677200	0.234300	0.931800
C2141	C214	0.668200	0.344900	0.876400
H1001	H100	0.675100	0.385000	0.876700
C2151	C215	0.691200	0.312700	0.907160
C2161	C216	0.615500	0.365400	0.811600
N431	N43	0.689800	0.227100	0.046800
H1011	H101	0.664800	0.210600	0.031100
N441	N44	0.706600	0.282000	0.990030
N451	N45	0.759600	0.301600	0.051640
N461	N46	0.820500	0.378900	0.054260
H1021	H102	0.815500	0.374500	0.079800
N471	N47	0.776400	0.359410	0.992500
N481	N48	0.728700	0.337100	0.933980
H1031	H103	0.749200	0.365900	0.924900
O1061	O106	0.977600	0.473620	0.134200
O1071	O107	0.083280	0.461700	0.994250
O1081	O108	0.024420	0.534810	0.094790
O1091	O109	0.158600	0.505300	0.911800
H1041	H104	0.185400	0.511700	0.927800
O1101	O110	0.878010	0.507340	0.931000
O1111	O111	0.066080	0.608200	0.998030
O1121	O112	0.960470	0.546130	0.949870
O1131	O113	0.646050	0.031060	0.164270
O1141	O114	0.610620	0.040960	0.102420
O1151	O115	0.588790	0.147050	0.853610
O1161	O116	0.609820	0.147380	0.918470
O1171	O117	0.791400	0.263000	0.183930
O1181	O118	0.761000	0.191800	0.219980
O1191	O119	0.638600	0.412500	0.805940
O1201	O120	0.585900	0.338100	0.782200
