data_ZEZPAX01_clean_PM
_symmetry_space_group_name_H-M	'P1'
_cell_length_a	9.241400
_cell_length_b	10.304000
_cell_length_c	12.829100
_cell_angle_alpha	76.388000
_cell_angle_beta	69.431000
_cell_angle_gamma	86.377000
_symmetry_Int_Tables_number 1

loop_
_symmetry_equiv_pos_as_xyz
'x,y,z'

loop_
_atom_site_label
_atom_site_type_symbol
_atom_site_fract_x
_atom_site_fract_y
_atom_site_fract_z
Dy11	Dy1	0.459680	0.251110	0.997670
O11	O1	0.460300	0.864400	0.145400
O21	O2	0.588500	0.551200	0.114100
O31	O3	0.337100	0.058000	0.124400
N11	N1	0.100300	0.854000	0.542600
N21	N2	0.373200	0.357000	0.535500
C11	C1	0.507500	0.447600	0.168400
C21	C2	0.066700	0.959000	0.473000
C31	C3	0.150900	0.995300	0.355900
H11	H1	0.126300	0.073100	0.309100
C41	C4	0.470700	0.460600	0.469600
C51	C5	0.219800	0.780400	0.497100
H21	H2	0.245900	0.706100	0.546500
C61	C6	0.514500	0.493300	0.351100
H31	H3	0.580300	0.568600	0.307200
C71	C7	0.460700	0.414500	0.297900
C81	C8	0.363200	0.948100	0.183600
C91	C9	0.271600	0.914700	0.309600
C101	C10	0.359400	0.308600	0.364800
H41	H4	0.318800	0.253500	0.331300
C111	C11	0.319800	0.286300	0.483000
H51	H5	0.249100	0.215000	0.529200
C121	C12	0.309000	0.807000	0.380100
H61	H6	0.392700	0.751900	0.350900
O41	O4	0.225500	0.218000	0.958700
O51	O5	0.187200	0.302500	0.102700
N31	N3	0.131300	0.258100	0.042900
O61	O6	0.989500	0.253300	0.062500
O71	O7	0.462000	0.366800	0.127400
Dy21	Dy2	0.540320	0.748890	0.002330
O81	O8	0.539700	0.135600	0.854600
O91	O9	0.411500	0.448800	0.885900
O101	O10	0.662900	0.942000	0.875600
N41	N4	0.899700	0.146000	0.457400
N51	N5	0.626800	0.643000	0.464500
C131	C13	0.492500	0.552400	0.831600
C141	C14	0.933300	0.041000	0.527000
C151	C15	0.849100	0.004700	0.644100
H71	H7	0.873700	0.926900	0.690900
C161	C16	0.529300	0.539400	0.530400
C171	C17	0.780200	0.219600	0.502900
H81	H8	0.754100	0.293900	0.453500
C181	C18	0.485500	0.506700	0.648900
H91	H9	0.419700	0.431400	0.692800
C191	C19	0.539300	0.585500	0.702100
C201	C20	0.636800	0.051900	0.816400
C211	C21	0.728400	0.085300	0.690400
C221	C22	0.640600	0.691400	0.635200
H101	H10	0.681200	0.746500	0.668700
C231	C23	0.680200	0.713700	0.517000
H111	H11	0.750900	0.785000	0.470800
C241	C24	0.691000	0.193000	0.619900
H121	H12	0.607300	0.248100	0.649100
O111	O11	0.774500	0.782000	0.041300
O121	O12	0.812800	0.697500	0.897300
N61	N6	0.868700	0.741900	0.957100
O131	O13	0.010500	0.746700	0.937500
O141	O14	0.538000	0.633200	0.872600
