data_ZEZPAX_clean_PM
_symmetry_space_group_name_H-M	'P1'
_cell_length_a	24.402000
_cell_length_b	9.343900
_cell_length_c	10.346900
_cell_angle_alpha	90.000000
_cell_angle_beta	97.371000
_cell_angle_gamma	90.000000
_symmetry_Int_Tables_number 1

loop_
_symmetry_equiv_pos_as_xyz
'x,y,z'

loop_
_atom_site_label
_atom_site_type_symbol
_atom_site_fract_x
_atom_site_fract_y
_atom_site_fract_z
C11	C1	0.177540	0.178400	0.992900
H11	H1	0.161600	0.216700	0.914000
O11	O1	0.069990	0.095600	0.904500
C21	C2	0.232750	0.204200	0.037400
C31	C3	0.146560	0.096300	0.065800
C41	C4	0.086080	0.069800	0.020100
C51	C5	0.171400	0.040600	0.181800
H21	H2	0.151300	0.986400	0.234700
N11	N1	0.257640	0.148300	0.148600
C61	C6	0.227000	0.067400	0.217500
H31	H3	0.244000	0.026600	0.294300
O21	O2	0.057260	0.023100	0.100100
O31	O3	0.030700	0.250900	0.683000
O41	O4	0.024900	0.447000	0.757000
C71	C7	0.677540	0.678400	0.992900
H41	H4	0.661600	0.716700	0.914000
O51	O5	0.569990	0.595600	0.904500
C81	C8	0.732750	0.704200	0.037400
C91	C9	0.646560	0.596300	0.065800
C101	C10	0.586080	0.569800	0.020100
C111	C11	0.671400	0.540600	0.181800
H51	H5	0.651300	0.486400	0.234700
N21	N2	0.757640	0.648300	0.148600
C121	C12	0.727000	0.567400	0.217500
H61	H6	0.744000	0.526600	0.294300
O61	O6	0.557260	0.523100	0.100100
O71	O7	0.530700	0.750900	0.683000
O81	O8	0.524900	0.947000	0.757000
C131	C13	0.822460	0.178400	0.507100
H71	H7	0.838400	0.216700	0.586000
O91	O9	0.930010	0.095600	0.595500
C141	C14	0.767250	0.204200	0.462600
C151	C15	0.853440	0.096300	0.434200
C161	C16	0.913920	0.069800	0.479900
C171	C17	0.828600	0.040600	0.318200
H81	H8	0.848700	0.986400	0.265300
N31	N3	0.742360	0.148300	0.351400
C181	C18	0.773000	0.067400	0.282500
H91	H9	0.756000	0.026600	0.205700
O101	O10	0.942740	0.023100	0.399900
O111	O11	0.969300	0.250900	0.817000
O121	O12	0.975100	0.447000	0.743000
C191	C19	0.322460	0.678400	0.507100
H101	H10	0.338400	0.716700	0.586000
O131	O13	0.430010	0.595600	0.595500
C201	C20	0.267250	0.704200	0.462600
C211	C21	0.353440	0.596300	0.434200
C221	C22	0.413920	0.569800	0.479900
C231	C23	0.328600	0.540600	0.318200
H111	H11	0.348700	0.486400	0.265300
N41	N4	0.242360	0.648300	0.351400
C241	C24	0.273000	0.567400	0.282500
H121	H12	0.256000	0.526600	0.205700
O141	O14	0.442740	0.523100	0.399900
O151	O15	0.469300	0.750900	0.817000
O161	O16	0.475100	0.947000	0.743000
C251	C25	0.822460	0.821600	0.007100
H131	H13	0.838400	0.783300	0.086000
O171	O17	0.930010	0.904400	0.095500
C261	C26	0.767250	0.795800	0.962600
C271	C27	0.853440	0.903700	0.934200
C281	C28	0.913920	0.930200	0.979900
C291	C29	0.828600	0.959400	0.818200
H141	H14	0.848700	0.013600	0.765300
N51	N5	0.742360	0.851700	0.851400
C301	C30	0.773000	0.932600	0.782500
H151	H15	0.756000	0.973400	0.705700
O181	O18	0.942740	0.976900	0.899900
O191	O19	0.969300	0.749100	0.317000
O201	O20	0.975100	0.553000	0.243000
C311	C31	0.322460	0.321600	0.007100
H161	H16	0.338400	0.283300	0.086000
O211	O21	0.430010	0.404400	0.095500
C321	C32	0.267250	0.295800	0.962600
C331	C33	0.353440	0.403700	0.934200
C341	C34	0.413920	0.430200	0.979900
C351	C35	0.328600	0.459400	0.818200
H171	H17	0.348700	0.513600	0.765300
N61	N6	0.242360	0.351700	0.851400
C361	C36	0.273000	0.432600	0.782500
H181	H18	0.256000	0.473400	0.705700
O221	O22	0.442740	0.476900	0.899900
O231	O23	0.469300	0.249100	0.317000
O241	O24	0.475100	0.053000	0.243000
C371	C37	0.177540	0.821600	0.492900
H191	H19	0.161600	0.783300	0.414000
O251	O25	0.069990	0.904400	0.404500
C381	C38	0.232750	0.795800	0.537400
C391	C39	0.146560	0.903700	0.565800
C401	C40	0.086080	0.930200	0.520100
C411	C41	0.171400	0.959400	0.681800
H201	H20	0.151300	0.013600	0.734700
N71	N7	0.257640	0.851700	0.648600
C421	C42	0.227000	0.932600	0.717500
H211	H21	0.244000	0.973400	0.794300
O261	O26	0.057260	0.976900	0.600100
O271	O27	0.030700	0.749100	0.183000
O281	O28	0.024900	0.553000	0.257000
C431	C43	0.677540	0.321600	0.492900
H221	H22	0.661600	0.283300	0.414000
O291	O29	0.569990	0.404400	0.404500
C441	C44	0.732750	0.295800	0.537400
C451	C45	0.646560	0.403700	0.565800
C461	C46	0.586080	0.430200	0.520100
C471	C47	0.671400	0.459400	0.681800
H231	H23	0.651300	0.513600	0.734700
N81	N8	0.757640	0.351700	0.648600
C481	C48	0.727000	0.432600	0.717500
H241	H24	0.744000	0.473400	0.794300
O301	O30	0.557260	0.476900	0.600100
O311	O31	0.530700	0.249100	0.183000
O321	O32	0.524900	0.053000	0.257000
Dy11	Dy1	0.000000	0.013100	0.750000
N91	N9	0.000000	0.314300	0.750000
Dy21	Dy2	0.500000	0.513100	0.750000
N101	N10	0.500000	0.814300	0.750000
Dy31	Dy3	0.000000	0.986900	0.250000
N111	N11	0.000000	0.685700	0.250000
Dy41	Dy4	0.500000	0.486900	0.250000
N121	N12	0.500000	0.185700	0.250000
