data_ZEZPUR_clean_PM
_symmetry_space_group_name_H-M	'P1'
_cell_length_a	9.885600
_cell_length_b	11.682700
_cell_length_c	13.441000
_cell_angle_alpha	66.863000
_cell_angle_beta	86.995000
_cell_angle_gamma	76.582000
_symmetry_Int_Tables_number 1

loop_
_symmetry_equiv_pos_as_xyz
'x,y,z'

loop_
_atom_site_label
_atom_site_type_symbol
_atom_site_fract_x
_atom_site_fract_y
_atom_site_fract_z
Dy11	Dy1	0.763310	0.973860	0.995740
Dy21	Dy2	0.236690	0.026140	0.004260
H11	H1	0.987200	0.375000	0.556800
H21	H2	0.948100	0.263100	0.732200
H31	H3	0.562400	0.490100	0.680900
H41	H4	0.698800	0.674700	0.341800
H51	H5	0.316300	0.901200	0.293200
H61	H6	0.278400	0.796000	0.474200
H71	H7	0.687800	0.908100	0.443500
H81	H8	0.755500	0.934700	0.272300
H91	H9	0.093700	0.032500	0.339800
H101	H10	0.012800	0.625000	0.443200
H111	H11	0.051900	0.736900	0.267800
H121	H12	0.437600	0.509900	0.319100
H131	H13	0.301200	0.325300	0.658200
H141	H14	0.683700	0.098800	0.706800
H151	H15	0.721600	0.204000	0.525800
H161	H16	0.312200	0.091900	0.556500
H171	H17	0.244500	0.065300	0.727700
H181	H18	0.906300	0.967500	0.660200
C11	C1	0.710000	0.291300	0.841500
C21	C2	0.901000	0.399000	0.582800
C31	C3	0.879000	0.330500	0.687900
C41	C4	0.749000	0.365000	0.727000
C51	C5	0.650500	0.465900	0.657500
C61	C6	0.685400	0.530100	0.552400
C71	C7	0.580300	0.642100	0.473300
C81	C8	0.612200	0.700700	0.366400
C91	C9	0.511500	0.798900	0.297800
C101	C10	0.385900	0.835200	0.338200
C111	C11	0.364100	0.772000	0.447300
C121	C12	0.534000	0.867400	0.180300
C131	C13	0.985400	0.005800	0.173400
C141	C14	0.771000	0.933000	0.422300
C151	C15	0.809700	0.949700	0.318400
C161	C16	0.933600	0.989400	0.284800
C171	C17	0.010100	0.007500	0.358600
C181	C18	0.960800	0.988000	0.460000
C191	C19	0.290000	0.708700	0.158500
C201	C20	0.099000	0.601000	0.417200
C211	C21	0.121000	0.669500	0.312100
C221	C22	0.251000	0.635000	0.273000
C231	C23	0.349500	0.534100	0.342500
C241	C24	0.314600	0.469900	0.447600
C251	C25	0.419700	0.357900	0.526700
C261	C26	0.387800	0.299300	0.633600
C271	C27	0.488500	0.201100	0.702200
C281	C28	0.614100	0.164800	0.661800
C291	C29	0.635900	0.228000	0.552700
C301	C30	0.466000	0.132600	0.819700
C311	C31	0.014600	0.994200	0.826600
C321	C32	0.229000	0.067000	0.577700
C331	C33	0.190300	0.050300	0.681600
C341	C34	0.066400	0.010600	0.715200
C351	C35	0.989900	0.992500	0.641400
C361	C36	0.039200	0.012000	0.540000
N11	N1	0.809600	0.497000	0.514200
N21	N2	0.462700	0.677200	0.515500
N31	N3	0.840100	0.950500	0.493900
N41	N4	0.190400	0.503000	0.485800
N51	N5	0.537300	0.322800	0.484500
N61	N6	0.159900	0.049500	0.506100
O11	O1	0.603700	0.336200	0.876500
O21	O2	0.797200	0.184200	0.892700
O31	O3	0.430800	0.941500	0.121200
O41	O4	0.654800	0.854100	0.149900
O51	O5	0.104000	0.027000	0.155600
O61	O6	0.909500	0.996300	0.108300
O71	O7	0.396300	0.663800	0.123500
O81	O8	0.202800	0.815800	0.107300
O91	O9	0.569200	0.058500	0.878800
O101	O10	0.345200	0.145900	0.850100
O111	O11	0.896000	0.973000	0.844400
O121	O12	0.090500	0.003700	0.891700
