data_ZICCIZ_clean_PM
_symmetry_space_group_name_H-M	'P1'
_cell_length_a	22.260000
_cell_length_b	22.260000
_cell_length_c	22.260000
_cell_angle_alpha	90.000000
_cell_angle_beta	90.000000
_cell_angle_gamma	90.000000
_symmetry_Int_Tables_number 1

loop_
_symmetry_equiv_pos_as_xyz
'x,y,z'

loop_
_atom_site_label
_atom_site_type_symbol
_atom_site_fract_x
_atom_site_fract_y
_atom_site_fract_z
Cd11	Cd1	0.237600	0.237600	0.762400
Cd21	Cd2	0.208200	0.208200	0.791800
Cd31	Cd3	0.762400	0.762400	0.762400
Cd41	Cd4	0.791800	0.791800	0.791800
Cd51	Cd5	0.762400	0.237600	0.237600
Cd61	Cd6	0.791800	0.208200	0.208200
Cd71	Cd7	0.237600	0.762400	0.237600
Cd81	Cd8	0.208200	0.791800	0.208200
Cd91	Cd9	0.237600	0.237600	0.237600
Cd101	Cd10	0.208200	0.208200	0.208200
Cd111	Cd11	0.762400	0.762400	0.237600
Cd121	Cd12	0.791800	0.791800	0.208200
Cd131	Cd13	0.237600	0.762400	0.762400
Cd141	Cd14	0.208200	0.791800	0.791800
Cd151	Cd15	0.762400	0.237600	0.762400
Cd161	Cd16	0.791800	0.208200	0.791800
Co11	Co1	0.500000	0.000000	0.500000
Co21	Co2	0.500000	0.500000	0.000000
Co31	Co3	0.000000	0.500000	0.500000
N11	N1	0.405900	0.000000	0.500000
N21	N2	0.594100	0.000000	0.500000
N31	N3	0.500000	0.405900	0.000000
N41	N4	0.500000	0.594100	0.000000
N51	N5	0.000000	0.500000	0.405900
N61	N6	0.000000	0.500000	0.594100
N71	N7	0.000000	0.405900	0.500000
N81	N8	0.000000	0.594100	0.500000
N91	N9	0.405900	0.500000	0.000000
N101	N10	0.594100	0.500000	0.000000
N111	N11	0.500000	0.000000	0.594100
N121	N12	0.500000	0.000000	0.405900
C11	C1	0.309600	0.000000	0.530300
H11	H1	0.275000	0.000000	0.555300
C21	C2	0.370400	0.000000	0.550400
C31	C3	0.690400	0.000000	0.530300
H21	H2	0.725000	0.000000	0.555300
C41	C4	0.629600	0.000000	0.550400
C51	C5	0.690400	0.000000	0.469700
H31	H3	0.725000	0.000000	0.444700
C61	C6	0.629600	0.000000	0.449600
C71	C7	0.309600	0.000000	0.469700
H41	H4	0.275000	0.000000	0.444700
C81	C8	0.370400	0.000000	0.449600
C91	C9	0.530300	0.309600	0.000000
H51	H5	0.555300	0.275000	0.000000
C101	C10	0.550400	0.370400	0.000000
C111	C11	0.530300	0.690400	0.000000
H61	H6	0.555300	0.725000	0.000000
C121	C12	0.550400	0.629600	0.000000
C131	C13	0.469700	0.690400	0.000000
H71	H7	0.444700	0.725000	0.000000
C141	C14	0.449600	0.629600	0.000000
C151	C15	0.469700	0.309600	0.000000
H81	H8	0.444700	0.275000	0.000000
C161	C16	0.449600	0.370400	0.000000
C171	C17	0.000000	0.530300	0.309600
H91	H9	0.000000	0.555300	0.275000
C181	C18	0.000000	0.550400	0.370400
C191	C19	0.000000	0.530300	0.690400
H101	H10	0.000000	0.555300	0.725000
C201	C20	0.000000	0.550400	0.629600
C211	C21	0.000000	0.469700	0.690400
H111	H11	0.000000	0.444700	0.725000
C221	C22	0.000000	0.449600	0.629600
C231	C23	0.000000	0.469700	0.309600
H121	H12	0.000000	0.444700	0.275000
C241	C24	0.000000	0.449600	0.370400
C251	C25	0.000000	0.309600	0.469700
H131	H13	0.000000	0.275000	0.444700
C261	C26	0.000000	0.370400	0.449600
C271	C27	0.000000	0.690400	0.469700
H141	H14	0.000000	0.725000	0.444700
C281	C28	0.000000	0.629600	0.449600
C291	C29	0.000000	0.690400	0.530300
H151	H15	0.000000	0.725000	0.555300
C301	C30	0.000000	0.629600	0.550400
C311	C31	0.000000	0.309600	0.530300
H161	H16	0.000000	0.275000	0.555300
C321	C32	0.000000	0.370400	0.550400
C331	C33	0.309600	0.530300	0.000000
H171	H17	0.275000	0.555300	0.000000
C341	C34	0.370400	0.550400	0.000000
C351	C35	0.690400	0.530300	0.000000
H181	H18	0.725000	0.555300	0.000000
C361	C36	0.629600	0.550400	0.000000
C371	C37	0.690400	0.469700	0.000000
H191	H19	0.725000	0.444700	0.000000
C381	C38	0.629600	0.449600	0.000000
C391	C39	0.309600	0.469700	0.000000
H201	H20	0.275000	0.444700	0.000000
C401	C40	0.370400	0.449600	0.000000
C411	C41	0.530300	0.000000	0.690400
H211	H21	0.555300	0.000000	0.725000
C421	C42	0.550400	0.000000	0.629600
C431	C43	0.530300	0.000000	0.309600
H221	H22	0.555300	0.000000	0.275000
C441	C44	0.550400	0.000000	0.370400
C451	C45	0.469700	0.000000	0.309600
H231	H23	0.444700	0.000000	0.275000
C461	C46	0.449600	0.000000	0.370400
C471	C47	0.469700	0.000000	0.690400
H241	H24	0.444700	0.000000	0.725000
C481	C48	0.449600	0.000000	0.629600
C491	C49	0.256200	0.000000	0.743800
H251	H25	0.226000	0.000000	0.774000
C501	C50	0.390800	0.000000	0.609200
C511	C51	0.343400	0.000000	0.656600
C521	C52	0.743800	0.000000	0.743800
H261	H26	0.774000	0.000000	0.774000
C531	C53	0.609200	0.000000	0.609200
C541	C54	0.656600	0.000000	0.656600
C551	C55	0.743800	0.000000	0.256200
H271	H27	0.774000	0.000000	0.226000
C561	C56	0.609200	0.000000	0.390800
C571	C57	0.656600	0.000000	0.343400
C581	C58	0.256200	0.000000	0.256200
H281	H28	0.226000	0.000000	0.226000
C591	C59	0.390800	0.000000	0.390800
C601	C60	0.343400	0.000000	0.343400
C611	C61	0.743800	0.256200	0.000000
H291	H29	0.774000	0.226000	0.000000
C621	C62	0.609200	0.390800	0.000000
C631	C63	0.656600	0.343400	0.000000
C641	C64	0.743800	0.743800	0.000000
H301	H30	0.774000	0.774000	0.000000
C651	C65	0.609200	0.609200	0.000000
C661	C66	0.656600	0.656600	0.000000
C671	C67	0.256200	0.743800	0.000000
H311	H31	0.226000	0.774000	0.000000
C681	C68	0.390800	0.609200	0.000000
C691	C69	0.343400	0.656600	0.000000
C701	C70	0.256200	0.256200	0.000000
H321	H32	0.226000	0.226000	0.000000
C711	C71	0.390800	0.390800	0.000000
C721	C72	0.343400	0.343400	0.000000
C731	C73	0.000000	0.743800	0.256200
H331	H33	0.000000	0.774000	0.226000
C741	C74	0.000000	0.609200	0.390800
C751	C75	0.000000	0.656600	0.343400
C761	C76	0.000000	0.743800	0.743800
H341	H34	0.000000	0.774000	0.774000
C771	C77	0.000000	0.609200	0.609200
C781	C78	0.000000	0.656600	0.656600
C791	C79	0.000000	0.256200	0.743800
H351	H35	0.000000	0.226000	0.774000
C801	C80	0.000000	0.390800	0.609200
C811	C81	0.000000	0.343400	0.656600
C821	C82	0.000000	0.256200	0.256200
H361	H36	0.000000	0.226000	0.226000
C831	C83	0.000000	0.390800	0.390800
C841	C84	0.000000	0.343400	0.343400
C851	C85	0.258300	0.111300	0.741700
C861	C86	0.321900	0.053800	0.678100
H371	H37	0.337000	0.090700	0.663000
O11	O1	0.219400	0.111700	0.780600
O21	O2	0.276300	0.158600	0.723700
C871	C87	0.278200	0.053300	0.721800
C881	C88	0.741700	0.888700	0.741700
C891	C89	0.678100	0.946200	0.678100
H381	H38	0.663000	0.909300	0.663000
O31	O3	0.780600	0.888300	0.780600
O41	O4	0.723700	0.841400	0.723700
C901	C90	0.721800	0.946700	0.721800
C911	C91	0.741700	0.111300	0.258300
C921	C92	0.678100	0.053800	0.321900
H391	H39	0.663000	0.090700	0.337000
O51	O5	0.780600	0.111700	0.219400
O61	O6	0.723700	0.158600	0.276300
C931	C93	0.721800	0.053300	0.278200
C941	C94	0.258300	0.888700	0.258300
C951	C95	0.321900	0.946200	0.321900
H401	H40	0.337000	0.909300	0.337000
O71	O7	0.219400	0.888300	0.219400
O81	O8	0.276300	0.841400	0.276300
C961	C96	0.278200	0.946700	0.278200
C971	C97	0.741700	0.258300	0.111300
C981	C98	0.678100	0.321900	0.053800
H411	H41	0.663000	0.337000	0.090700
O91	O9	0.780600	0.219400	0.111700
O101	O10	0.723700	0.276300	0.158600
C991	C99	0.721800	0.278200	0.053300
C1001	C100	0.741700	0.741700	0.888700
C1011	C101	0.678100	0.678100	0.946200
H421	H42	0.663000	0.663000	0.909300
O111	O11	0.780600	0.780600	0.888300
O121	O12	0.723700	0.723700	0.841400
C1021	C102	0.721800	0.721800	0.946700
C1031	C103	0.258300	0.741700	0.111300
C1041	C104	0.321900	0.678100	0.053800
H431	H43	0.337000	0.663000	0.090700
O131	O13	0.219400	0.780600	0.111700
O141	O14	0.276300	0.723700	0.158600
C1051	C105	0.278200	0.721800	0.053300
C1061	C106	0.258300	0.258300	0.888700
C1071	C107	0.321900	0.321900	0.946200
H441	H44	0.337000	0.337000	0.909300
O151	O15	0.219400	0.219400	0.888300
O161	O16	0.276300	0.276300	0.841400
C1081	C108	0.278200	0.278200	0.946700
C1091	C109	0.111300	0.741700	0.258300
C1101	C110	0.053800	0.678100	0.321900
H451	H45	0.090700	0.663000	0.337000
O171	O17	0.111700	0.780600	0.219400
O181	O18	0.158600	0.723700	0.276300
C1111	C111	0.053300	0.721800	0.278200
C1121	C112	0.888700	0.741700	0.741700
C1131	C113	0.946200	0.678100	0.678100
H461	H46	0.909300	0.663000	0.663000
O191	O19	0.888300	0.780600	0.780600
O201	O20	0.841400	0.723700	0.723700
C1141	C114	0.946700	0.721800	0.721800
C1151	C115	0.111300	0.258300	0.741700
C1161	C116	0.053800	0.321900	0.678100
H471	H47	0.090700	0.337000	0.663000
O211	O21	0.111700	0.219400	0.780600
O221	O22	0.158600	0.276300	0.723700
C1171	C117	0.053300	0.278200	0.721800
C1181	C118	0.888700	0.258300	0.258300
C1191	C119	0.946200	0.321900	0.321900
H481	H48	0.909300	0.337000	0.337000
O231	O23	0.888300	0.219400	0.219400
O241	O24	0.841400	0.276300	0.276300
C1201	C120	0.946700	0.278200	0.278200
C1211	C121	0.111300	0.258300	0.258300
C1221	C122	0.053800	0.321900	0.321900
H491	H49	0.090700	0.337000	0.337000
O251	O25	0.111700	0.219400	0.219400
O261	O26	0.158600	0.276300	0.276300
C1231	C123	0.053300	0.278200	0.278200
C1241	C124	0.888700	0.741700	0.258300
C1251	C125	0.946200	0.678100	0.321900
H501	H50	0.909300	0.663000	0.337000
O271	O27	0.888300	0.780600	0.219400
O281	O28	0.841400	0.723700	0.276300
C1261	C126	0.946700	0.721800	0.278200
C1271	C127	0.111300	0.741700	0.741700
C1281	C128	0.053800	0.678100	0.678100
H511	H51	0.090700	0.663000	0.663000
O291	O29	0.111700	0.780600	0.780600
O301	O30	0.158600	0.723700	0.723700
C1291	C129	0.053300	0.721800	0.721800
C1301	C130	0.888700	0.258300	0.741700
C1311	C131	0.946200	0.321900	0.678100
H521	H52	0.909300	0.337000	0.663000
O311	O31	0.888300	0.219400	0.780600
O321	O32	0.841400	0.276300	0.723700
C1321	C132	0.946700	0.278200	0.721800
C1331	C133	0.258300	0.741700	0.888700
C1341	C134	0.321900	0.678100	0.946200
H531	H53	0.337000	0.663000	0.909300
O331	O33	0.219400	0.780600	0.888300
O341	O34	0.276300	0.723700	0.841400
C1351	C135	0.278200	0.721800	0.946700
C1361	C136	0.741700	0.741700	0.111300
C1371	C137	0.678100	0.678100	0.053800
H541	H54	0.663000	0.663000	0.090700
O351	O35	0.780600	0.780600	0.111700
O361	O36	0.723700	0.723700	0.158600
C1381	C138	0.721800	0.721800	0.053300
C1391	C139	0.741700	0.258300	0.888700
C1401	C140	0.678100	0.321900	0.946200
H551	H55	0.663000	0.337000	0.909300
O371	O37	0.780600	0.219400	0.888300
O381	O38	0.723700	0.276300	0.841400
C1411	C141	0.721800	0.278200	0.946700
C1421	C142	0.258300	0.258300	0.111300
C1431	C143	0.321900	0.321900	0.053800
H561	H56	0.337000	0.337000	0.090700
O391	O39	0.219400	0.219400	0.111700
O401	O40	0.276300	0.276300	0.158600
C1441	C144	0.278200	0.278200	0.053300
C1451	C145	0.741700	0.111300	0.741700
C1461	C146	0.678100	0.053800	0.678100
H571	H57	0.663000	0.090700	0.663000
O411	O41	0.780600	0.111700	0.780600
O421	O42	0.723700	0.158600	0.723700
C1471	C147	0.721800	0.053300	0.721800
C1481	C148	0.741700	0.888700	0.258300
C1491	C149	0.678100	0.946200	0.321900
H581	H58	0.663000	0.909300	0.337000
O431	O43	0.780600	0.888300	0.219400
O441	O44	0.723700	0.841400	0.276300
C1501	C150	0.721800	0.946700	0.278200
C1511	C151	0.258300	0.111300	0.258300
C1521	C152	0.321900	0.053800	0.321900
H591	H59	0.337000	0.090700	0.337000
O451	O45	0.219400	0.111700	0.219400
O461	O46	0.276300	0.158600	0.276300
C1531	C153	0.278200	0.053300	0.278200
C1541	C154	0.258300	0.888700	0.741700
C1551	C155	0.321900	0.946200	0.678100
H601	H60	0.337000	0.909300	0.663000
O471	O47	0.219400	0.888300	0.780600
O481	O48	0.276300	0.841400	0.723700
C1561	C156	0.278200	0.946700	0.721800
