data_ZIDBEV_clean_PM
_symmetry_space_group_name_H-M	'P1'
_cell_length_a	12.774000
_cell_length_b	19.299000
_cell_length_c	11.056000
_cell_angle_alpha	90.000000
_cell_angle_beta	98.752000
_cell_angle_gamma	90.000000
_symmetry_Int_Tables_number 1

loop_
_symmetry_equiv_pos_as_xyz
'x,y,z'

loop_
_atom_site_label
_atom_site_type_symbol
_atom_site_fract_x
_atom_site_fract_y
_atom_site_fract_z
C11	C1	0.000000	0.363000	0.252000
H11	H1	0.929500	0.376800	0.235100
C21	C2	0.146600	0.321200	0.229000
H21	H2	0.202500	0.300700	0.197400
C31	C3	0.240700	0.345700	0.444200
H31	H3	0.238500	0.388200	0.490600
H41	H4	0.306600	0.345000	0.410700
C41	C4	0.236300	0.283400	0.528600
H51	H5	0.285100	0.290800	0.603600
H61	H6	0.165500	0.279700	0.549800
N11	N1	0.051000	0.332400	0.167600
N21	N2	0.056900	0.371500	0.357900
N31	N3	0.150400	0.343900	0.343500
C51	C5	0.500000	0.863000	0.252000
H71	H7	0.429500	0.876800	0.235100
C61	C6	0.646600	0.821200	0.229000
H81	H8	0.702500	0.800700	0.197400
C71	C7	0.740700	0.845700	0.444200
H91	H9	0.738500	0.888200	0.490600
H101	H10	0.806600	0.845000	0.410700
C81	C8	0.736300	0.783400	0.528600
H111	H11	0.785100	0.790800	0.603600
H121	H12	0.665500	0.779700	0.549800
N41	N4	0.551000	0.832400	0.167600
N51	N5	0.556900	0.871500	0.357900
N61	N6	0.650400	0.843900	0.343500
C91	C9	0.000000	0.363000	0.748000
H131	H13	0.070500	0.376800	0.764900
C101	C10	0.853400	0.321200	0.771000
H141	H14	0.797500	0.300700	0.802600
C111	C11	0.759300	0.345700	0.555800
H151	H15	0.761500	0.388200	0.509400
H161	H16	0.693400	0.345000	0.589300
C121	C12	0.763700	0.283400	0.471400
H171	H17	0.714900	0.290800	0.396400
H181	H18	0.834500	0.279700	0.450200
N71	N7	0.949000	0.332400	0.832400
N81	N8	0.943100	0.371500	0.642100
N91	N9	0.849600	0.343900	0.656500
C131	C13	0.500000	0.863000	0.748000
H191	H19	0.570500	0.876800	0.764900
C141	C14	0.353400	0.821200	0.771000
H201	H20	0.297500	0.800700	0.802600
C151	C15	0.259300	0.845700	0.555800
H211	H21	0.261500	0.888200	0.509400
H221	H22	0.193400	0.845000	0.589300
C161	C16	0.263700	0.783400	0.471400
H231	H23	0.214900	0.790800	0.396400
H241	H24	0.334500	0.779700	0.450200
N101	N10	0.449000	0.832400	0.832400
N111	N11	0.443100	0.871500	0.642100
N121	N12	0.349600	0.843900	0.656500
C171	C17	0.000000	0.637000	0.748000
H251	H25	0.070500	0.623200	0.764900
C181	C18	0.853400	0.678800	0.771000
H261	H26	0.797500	0.699300	0.802600
C191	C19	0.759300	0.654300	0.555800
H271	H27	0.761500	0.611800	0.509400
H281	H28	0.693400	0.655000	0.589300
C201	C20	0.763700	0.716600	0.471400
H291	H29	0.714900	0.709200	0.396400
H301	H30	0.834500	0.720300	0.450200
N131	N13	0.949000	0.667600	0.832400
N141	N14	0.943100	0.628500	0.642100
N151	N15	0.849600	0.656100	0.656500
C211	C21	0.500000	0.137000	0.748000
H311	H31	0.570500	0.123200	0.764900
C221	C22	0.353400	0.178800	0.771000
H321	H32	0.297500	0.199300	0.802600
C231	C23	0.259300	0.154300	0.555800
H331	H33	0.261500	0.111800	0.509400
H341	H34	0.193400	0.155000	0.589300
C241	C24	0.263700	0.216600	0.471400
H351	H35	0.214900	0.209200	0.396400
H361	H36	0.334500	0.220300	0.450200
N161	N16	0.449000	0.167600	0.832400
N171	N17	0.443100	0.128500	0.642100
N181	N18	0.349600	0.156100	0.656500
C251	C25	0.000000	0.637000	0.252000
H371	H37	0.929500	0.623200	0.235100
C261	C26	0.146600	0.678800	0.229000
H381	H38	0.202500	0.699300	0.197400
C271	C27	0.240700	0.654300	0.444200
H391	H39	0.238500	0.611800	0.490600
H401	H40	0.306600	0.655000	0.410700
C281	C28	0.236300	0.716600	0.528600
H411	H41	0.285100	0.709200	0.603600
H421	H42	0.165500	0.720300	0.549800
N191	N19	0.051000	0.667600	0.167600
N201	N20	0.056900	0.628500	0.357900
N211	N21	0.150400	0.656100	0.343500
C291	C29	0.500000	0.137000	0.252000
H431	H43	0.429500	0.123200	0.235100
C301	C30	0.646600	0.178800	0.229000
H441	H44	0.702500	0.199300	0.197400
C311	C31	0.740700	0.154300	0.444200
H451	H45	0.738500	0.111800	0.490600
H461	H46	0.806600	0.155000	0.410700
C321	C32	0.736300	0.216600	0.528600
H471	H47	0.785100	0.209200	0.603600
H481	H48	0.665500	0.220300	0.549800
N221	N22	0.551000	0.167600	0.167600
N231	N23	0.556900	0.128500	0.357900
N241	N24	0.650400	0.156100	0.343500
Cu11	Cu1	0.000000	0.322890	0.000000
Cu21	Cu2	0.500000	0.822890	0.000000
Cu31	Cu3	0.000000	0.677110	0.000000
Cu41	Cu4	0.500000	0.177110	0.000000
Cu51	Cu5	0.000000	0.410100	0.500000
Cu61	Cu6	0.500000	0.910100	0.500000
Cu71	Cu7	0.000000	0.589900	0.500000
Cu81	Cu8	0.500000	0.089900	0.500000
O11	O1	0.000000	0.500000	0.500000
O21	O2	0.500000	0.000000	0.500000
