data_ZIGFIG_clean_PM
_symmetry_space_group_name_H-M	'P1'
_cell_length_a	25.955700
_cell_length_b	25.955700
_cell_length_c	25.955700
_cell_angle_alpha	90.000000
_cell_angle_beta	90.000000
_cell_angle_gamma	90.000000
_symmetry_Int_Tables_number 1

loop_
_symmetry_equiv_pos_as_xyz
'x,y,z'

loop_
_atom_site_label
_atom_site_type_symbol
_atom_site_fract_x
_atom_site_fract_y
_atom_site_fract_z
O11	O1	0.319800	0.248100	0.942800
O21	O2	0.319800	0.748100	0.442800
O31	O3	0.819800	0.248100	0.442800
O41	O4	0.819800	0.748100	0.942800
O51	O5	0.680200	0.751900	0.942800
O61	O6	0.680200	0.251900	0.442800
O71	O7	0.180200	0.751900	0.442800
O81	O8	0.180200	0.251900	0.942800
O91	O9	0.680200	0.248100	0.057200
O101	O10	0.680200	0.748100	0.557200
O111	O11	0.180200	0.248100	0.557200
O121	O12	0.180200	0.748100	0.057200
O131	O13	0.319800	0.751900	0.057200
O141	O14	0.319800	0.251900	0.557200
O151	O15	0.819800	0.751900	0.557200
O161	O16	0.819800	0.251900	0.057200
O171	O17	0.942800	0.319800	0.248100
O181	O18	0.942800	0.819800	0.748100
O191	O19	0.442800	0.319800	0.748100
O201	O20	0.442800	0.819800	0.248100
O211	O21	0.942800	0.680200	0.751900
O221	O22	0.942800	0.180200	0.251900
O231	O23	0.442800	0.680200	0.251900
O241	O24	0.442800	0.180200	0.751900
O251	O25	0.057200	0.680200	0.248100
O261	O26	0.057200	0.180200	0.748100
O271	O27	0.557200	0.680200	0.748100
O281	O28	0.557200	0.180200	0.248100
O291	O29	0.057200	0.319800	0.751900
O301	O30	0.057200	0.819800	0.251900
O311	O31	0.557200	0.319800	0.251900
O321	O32	0.557200	0.819800	0.751900
O331	O33	0.248100	0.942800	0.319800
O341	O34	0.248100	0.442800	0.819800
O351	O35	0.748100	0.942800	0.819800
O361	O36	0.748100	0.442800	0.319800
O371	O37	0.751900	0.942800	0.680200
O381	O38	0.751900	0.442800	0.180200
O391	O39	0.251900	0.942800	0.180200
O401	O40	0.251900	0.442800	0.680200
O411	O41	0.248100	0.057200	0.680200
O421	O42	0.248100	0.557200	0.180200
O431	O43	0.748100	0.057200	0.180200
O441	O44	0.748100	0.557200	0.680200
O451	O45	0.751900	0.057200	0.319800
O461	O46	0.751900	0.557200	0.819800
O471	O47	0.251900	0.057200	0.819800
O481	O48	0.251900	0.557200	0.319800
O491	O49	0.248100	0.319800	0.057200
O501	O50	0.248100	0.819800	0.557200
O511	O51	0.748100	0.319800	0.557200
O521	O52	0.748100	0.819800	0.057200
O531	O53	0.751900	0.680200	0.057200
O541	O54	0.751900	0.180200	0.557200
O551	O55	0.251900	0.680200	0.557200
O561	O56	0.251900	0.180200	0.057200
O571	O57	0.248100	0.680200	0.942800
O581	O58	0.248100	0.180200	0.442800
O591	O59	0.748100	0.680200	0.442800
O601	O60	0.748100	0.180200	0.942800
O611	O61	0.751900	0.319800	0.942800
O621	O62	0.751900	0.819800	0.442800
O631	O63	0.251900	0.319800	0.442800
O641	O64	0.251900	0.819800	0.942800
O651	O65	0.319800	0.942800	0.751900
O661	O66	0.319800	0.442800	0.251900
O671	O67	0.819800	0.942800	0.251900
O681	O68	0.819800	0.442800	0.751900
O691	O69	0.680200	0.942800	0.248100
O701	O70	0.680200	0.442800	0.748100
O711	O71	0.180200	0.942800	0.748100
O721	O72	0.180200	0.442800	0.248100
O731	O73	0.680200	0.057200	0.751900
O741	O74	0.680200	0.557200	0.251900
O751	O75	0.180200	0.057200	0.251900
O761	O76	0.180200	0.557200	0.751900
O771	O77	0.319800	0.057200	0.248100
O781	O78	0.319800	0.557200	0.748100
O791	O79	0.819800	0.057200	0.748100
O801	O80	0.819800	0.557200	0.248100
O811	O81	0.942800	0.248100	0.680200
O821	O82	0.942800	0.748100	0.180200
O831	O83	0.442800	0.248100	0.180200
O841	O84	0.442800	0.748100	0.680200
O851	O85	0.942800	0.751900	0.319800
O861	O86	0.942800	0.251900	0.819800
O871	O87	0.442800	0.751900	0.819800
O881	O88	0.442800	0.251900	0.319800
O891	O89	0.057200	0.248100	0.319800
O901	O90	0.057200	0.748100	0.819800
O911	O91	0.557200	0.248100	0.819800
O921	O92	0.557200	0.748100	0.319800
O931	O93	0.057200	0.751900	0.680200
O941	O94	0.057200	0.251900	0.180200
O951	O95	0.557200	0.751900	0.180200
O961	O96	0.557200	0.251900	0.680200
O971	O97	0.680200	0.751900	0.057200
O981	O98	0.680200	0.251900	0.557200
O991	O99	0.180200	0.751900	0.557200
O1001	O100	0.180200	0.251900	0.057200
O1011	O101	0.319800	0.248100	0.057200
O1021	O102	0.319800	0.748100	0.557200
O1031	O103	0.819800	0.248100	0.557200
O1041	O104	0.819800	0.748100	0.057200
O1051	O105	0.319800	0.751900	0.942800
O1061	O106	0.319800	0.251900	0.442800
O1071	O107	0.819800	0.751900	0.442800
O1081	O108	0.819800	0.251900	0.942800
O1091	O109	0.680200	0.248100	0.942800
O1101	O110	0.680200	0.748100	0.442800
O1111	O111	0.180200	0.248100	0.442800
O1121	O112	0.180200	0.748100	0.942800
O1131	O113	0.057200	0.680200	0.751900
O1141	O114	0.057200	0.180200	0.251900
O1151	O115	0.557200	0.680200	0.251900
O1161	O116	0.557200	0.180200	0.751900
O1171	O117	0.057200	0.319800	0.248100
O1181	O118	0.057200	0.819800	0.748100
O1191	O119	0.557200	0.319800	0.748100
O1201	O120	0.557200	0.819800	0.248100
O1211	O121	0.942800	0.319800	0.751900
O1221	O122	0.942800	0.819800	0.251900
O1231	O123	0.442800	0.319800	0.251900
O1241	O124	0.442800	0.819800	0.751900
O1251	O125	0.942800	0.680200	0.248100
O1261	O126	0.942800	0.180200	0.748100
O1271	O127	0.442800	0.680200	0.748100
O1281	O128	0.442800	0.180200	0.248100
O1291	O129	0.751900	0.057200	0.680200
O1301	O130	0.751900	0.557200	0.180200
O1311	O131	0.251900	0.057200	0.180200
O1321	O132	0.251900	0.557200	0.680200
O1331	O133	0.248100	0.057200	0.319800
O1341	O134	0.248100	0.557200	0.819800
O1351	O135	0.748100	0.057200	0.819800
O1361	O136	0.748100	0.557200	0.319800
O1371	O137	0.751900	0.942800	0.319800
O1381	O138	0.751900	0.442800	0.819800
O1391	O139	0.251900	0.942800	0.819800
O1401	O140	0.251900	0.442800	0.319800
O1411	O141	0.248100	0.942800	0.680200
O1421	O142	0.248100	0.442800	0.180200
O1431	O143	0.748100	0.942800	0.180200
O1441	O144	0.748100	0.442800	0.680200
O1451	O145	0.751900	0.680200	0.942800
O1461	O146	0.751900	0.180200	0.442800
O1471	O147	0.251900	0.680200	0.442800
O1481	O148	0.251900	0.180200	0.942800
O1491	O149	0.248100	0.319800	0.942800
O1501	O150	0.248100	0.819800	0.442800
O1511	O151	0.748100	0.319800	0.442800
O1521	O152	0.748100	0.819800	0.942800
O1531	O153	0.751900	0.319800	0.057200
O1541	O154	0.751900	0.819800	0.557200
O1551	O155	0.251900	0.319800	0.557200
O1561	O156	0.251900	0.819800	0.057200
O1571	O157	0.248100	0.680200	0.057200
O1581	O158	0.248100	0.180200	0.557200
O1591	O159	0.748100	0.680200	0.557200
O1601	O160	0.748100	0.180200	0.057200
O1611	O161	0.680200	0.057200	0.248100
O1621	O162	0.680200	0.557200	0.748100
O1631	O163	0.180200	0.057200	0.748100
O1641	O164	0.180200	0.557200	0.248100
O1651	O165	0.319800	0.057200	0.751900
O1661	O166	0.319800	0.557200	0.251900
O1671	O167	0.819800	0.057200	0.251900
O1681	O168	0.819800	0.557200	0.751900
O1691	O169	0.319800	0.942800	0.248100
O1701	O170	0.319800	0.442800	0.748100
O1711	O171	0.819800	0.942800	0.748100
O1721	O172	0.819800	0.442800	0.248100
O1731	O173	0.680200	0.942800	0.751900
O1741	O174	0.680200	0.442800	0.251900
O1751	O175	0.180200	0.942800	0.251900
O1761	O176	0.180200	0.442800	0.751900
O1771	O177	0.057200	0.751900	0.319800
O1781	O178	0.057200	0.251900	0.819800
O1791	O179	0.557200	0.751900	0.819800
O1801	O180	0.557200	0.251900	0.319800
O1811	O181	0.057200	0.248100	0.680200
O1821	O182	0.057200	0.748100	0.180200
O1831	O183	0.557200	0.248100	0.180200
O1841	O184	0.557200	0.748100	0.680200
O1851	O185	0.942800	0.751900	0.680200
O1861	O186	0.942800	0.251900	0.180200
O1871	O187	0.442800	0.751900	0.180200
O1881	O188	0.442800	0.251900	0.680200
O1891	O189	0.942800	0.248100	0.319800
O1901	O190	0.942800	0.748100	0.819800
O1911	O191	0.442800	0.248100	0.819800
O1921	O192	0.442800	0.748100	0.319800
C11	C1	0.296710	0.203290	0.929150
C21	C2	0.322240	0.177760	0.885960
C31	C3	0.296710	0.703290	0.429150
C41	C4	0.322240	0.677760	0.385960
C51	C5	0.703290	0.796710	0.929150
C61	C6	0.677760	0.822240	0.885960
C71	C7	0.703290	0.296710	0.429150
C81	C8	0.677760	0.322240	0.385960
C91	C9	0.203290	0.296710	0.929150
C101	C10	0.177760	0.322240	0.885960
C111	C11	0.703290	0.203290	0.070850
C121	C12	0.677760	0.177760	0.114040
C131	C13	0.703290	0.703290	0.570850
C141	C14	0.677760	0.677760	0.614040
C151	C15	0.203290	0.203290	0.570850
C161	C16	0.177760	0.177760	0.614040
C171	C17	0.296710	0.796710	0.070850
C181	C18	0.322240	0.822240	0.114040
C191	C19	0.296710	0.296710	0.570850
C201	C20	0.322240	0.322240	0.614040
C211	C21	0.929150	0.296710	0.203290
C221	C22	0.885960	0.322240	0.177760
C231	C23	0.429150	0.296710	0.703290
C241	C24	0.385960	0.322240	0.677760
C251	C25	0.929150	0.703290	0.796710
C261	C26	0.885960	0.677760	0.822240
C271	C27	0.929150	0.203290	0.296710
C281	C28	0.885960	0.177760	0.322240
C291	C29	0.429150	0.703290	0.296710
C301	C30	0.385960	0.677760	0.322240
C311	C31	0.070850	0.703290	0.203290
C321	C32	0.114040	0.677760	0.177760
C331	C33	0.570850	0.703290	0.703290
C341	C34	0.614040	0.677760	0.677760
C351	C35	0.570850	0.203290	0.203290
C361	C36	0.614040	0.177760	0.177760
C371	C37	0.070850	0.296710	0.796710
C381	C38	0.114040	0.322240	0.822240
C391	C39	0.570850	0.296710	0.296710
C401	C40	0.614040	0.322240	0.322240
C411	C41	0.203290	0.929150	0.296710
C421	C42	0.177760	0.885960	0.322240
C431	C43	0.203290	0.429150	0.796710
C441	C44	0.177760	0.385960	0.822240
C451	C45	0.796710	0.929150	0.703290
C461	C46	0.822240	0.885960	0.677760
C471	C47	0.796710	0.429150	0.203290
C481	C48	0.822240	0.385960	0.177760
C491	C49	0.296710	0.929150	0.203290
C501	C50	0.322240	0.885960	0.177760
C511	C51	0.203290	0.070850	0.703290
C521	C52	0.177760	0.114040	0.677760
C531	C53	0.203290	0.570850	0.203290
C541	C54	0.177760	0.614040	0.177760
C551	C55	0.796710	0.070850	0.296710
C561	C56	0.822240	0.114040	0.322240
C571	C57	0.796710	0.570850	0.796710
C581	C58	0.822240	0.614040	0.822240
C591	C59	0.296710	0.570850	0.296710
C601	C60	0.322240	0.614040	0.322240
C611	C61	0.203290	0.296710	0.070850
C621	C62	0.177760	0.322240	0.114040
C631	C63	0.203290	0.796710	0.570850
C641	C64	0.177760	0.822240	0.614040
C651	C65	0.796710	0.703290	0.070850
C661	C66	0.822240	0.677760	0.114040
C671	C67	0.796710	0.203290	0.570850
C681	C68	0.822240	0.177760	0.614040
C691	C69	0.296710	0.203290	0.070850
C701	C70	0.322240	0.177760	0.114040
C711	C71	0.203290	0.703290	0.929150
C721	C72	0.177760	0.677760	0.885960
C731	C73	0.203290	0.203290	0.429150
C741	C74	0.177760	0.177760	0.385960
C751	C75	0.796710	0.296710	0.929150
C761	C76	0.822240	0.322240	0.885960
C771	C77	0.796710	0.796710	0.429150
C781	C78	0.822240	0.822240	0.385960
C791	C79	0.296710	0.296710	0.429150
C801	C80	0.322240	0.322240	0.385960
C811	C81	0.296710	0.929150	0.796710
C821	C82	0.322240	0.885960	0.822240
C831	C83	0.296710	0.429150	0.296710
C841	C84	0.322240	0.385960	0.322240
C851	C85	0.703290	0.929150	0.203290
C861	C86	0.677760	0.885960	0.177760
C871	C87	0.703290	0.429150	0.703290
C881	C88	0.677760	0.385960	0.677760
C891	C89	0.203290	0.429150	0.203290
C901	C90	0.177760	0.385960	0.177760
C911	C91	0.703290	0.070850	0.796710
C921	C92	0.677760	0.114040	0.822240
C931	C93	0.703290	0.570850	0.296710
C941	C94	0.677760	0.614040	0.322240
C951	C95	0.203290	0.070850	0.296710
C961	C96	0.177760	0.114040	0.322240
C971	C97	0.296710	0.070850	0.203290
C981	C98	0.322240	0.114040	0.177760
C991	C99	0.296710	0.570850	0.703290
C1001	C100	0.322240	0.614040	0.677760
C1011	C101	0.929150	0.203290	0.703290
C1021	C102	0.885960	0.177760	0.677760
C1031	C103	0.429150	0.203290	0.203290
C1041	C104	0.385960	0.177760	0.177760
C1051	C105	0.929150	0.796710	0.296710
C1061	C106	0.885960	0.822240	0.322240
C1071	C107	0.429150	0.796710	0.796710
C1081	C108	0.385960	0.822240	0.822240
C1091	C109	0.429150	0.296710	0.296710
C1101	C110	0.385960	0.322240	0.322240
C1111	C111	0.070850	0.203290	0.296710
C1121	C112	0.114040	0.177760	0.322240
C1131	C113	0.570850	0.203290	0.796710
C1141	C114	0.614040	0.177760	0.822240
C1151	C115	0.070850	0.796710	0.703290
C1161	C116	0.114040	0.822240	0.677760
C1171	C117	0.070850	0.296710	0.203290
C1181	C118	0.114040	0.322240	0.177760
C1191	C119	0.570850	0.796710	0.203290
C1201	C120	0.614040	0.822240	0.177760
C1211	C121	0.703290	0.796710	0.070850
C1221	C122	0.677760	0.822240	0.114040
C1231	C123	0.703290	0.296710	0.570850
C1241	C124	0.677760	0.322240	0.614040
C1251	C125	0.296710	0.703290	0.570850
C1261	C126	0.322240	0.677760	0.614040
C1271	C127	0.296710	0.796710	0.929150
C1281	C128	0.322240	0.822240	0.885960
C1291	C129	0.703290	0.203290	0.929150
C1301	C130	0.677760	0.177760	0.885960
C1311	C131	0.703290	0.703290	0.429150
C1321	C132	0.677760	0.677760	0.385960
C1331	C133	0.070850	0.703290	0.796710
C1341	C134	0.114040	0.677760	0.822240
C1351	C135	0.570850	0.703290	0.296710
C1361	C136	0.614040	0.677760	0.322240
C1371	C137	0.570850	0.296710	0.703290
C1381	C138	0.614040	0.322240	0.677760
C1391	C139	0.929150	0.296710	0.796710
C1401	C140	0.885960	0.322240	0.822240
C1411	C141	0.929150	0.703290	0.203290
C1421	C142	0.885960	0.677760	0.177760
C1431	C143	0.429150	0.703290	0.703290
C1441	C144	0.385960	0.677760	0.677760
C1451	C145	0.796710	0.070850	0.703290
C1461	C146	0.822240	0.114040	0.677760
C1471	C147	0.796710	0.570850	0.203290
C1481	C148	0.822240	0.614040	0.177760
C1491	C149	0.203290	0.570850	0.796710
C1501	C150	0.177760	0.614040	0.822240
C1511	C151	0.796710	0.929150	0.296710
C1521	C152	0.822240	0.885960	0.322240
C1531	C153	0.796710	0.429150	0.796710
C1541	C154	0.822240	0.385960	0.822240
C1551	C155	0.203290	0.929150	0.703290
C1561	C156	0.177760	0.885960	0.677760
C1571	C157	0.796710	0.703290	0.929150
C1581	C158	0.822240	0.677760	0.885960
C1591	C159	0.796710	0.203290	0.429150
C1601	C160	0.822240	0.177760	0.385960
C1611	C161	0.203290	0.796710	0.429150
C1621	C162	0.177760	0.822240	0.385960
C1631	C163	0.796710	0.296710	0.070850
C1641	C164	0.822240	0.322240	0.114040
C1651	C165	0.796710	0.796710	0.570850
C1661	C166	0.822240	0.822240	0.614040
C1671	C167	0.203290	0.703290	0.070850
C1681	C168	0.177760	0.677760	0.114040
C1691	C169	0.703290	0.070850	0.203290
C1701	C170	0.677760	0.114040	0.177760
C1711	C171	0.703290	0.570850	0.703290
C1721	C172	0.677760	0.614040	0.677760
C1731	C173	0.296710	0.070850	0.796710
C1741	C174	0.322240	0.114040	0.822240
C1751	C175	0.296710	0.429150	0.703290
C1761	C176	0.322240	0.385960	0.677760
C1771	C177	0.703290	0.929150	0.796710
C1781	C178	0.677760	0.885960	0.822240
C1791	C179	0.703290	0.429150	0.296710
C1801	C180	0.677760	0.385960	0.322240
C1811	C181	0.070850	0.796710	0.296710
C1821	C182	0.114040	0.822240	0.322240
C1831	C183	0.570850	0.796710	0.796710
C1841	C184	0.614040	0.822240	0.822240
C1851	C185	0.070850	0.203290	0.703290
C1861	C186	0.114040	0.177760	0.677760
C1871	C187	0.929150	0.796710	0.703290
C1881	C188	0.885960	0.822240	0.677760
C1891	C189	0.429150	0.796710	0.203290
C1901	C190	0.385960	0.822240	0.177760
C1911	C191	0.429150	0.203290	0.796710
C1921	C192	0.385960	0.177760	0.822240
C1931	C193	0.364610	0.200560	0.864610
H11	H1	0.379210	0.233690	0.879210
C1941	C194	0.364610	0.700560	0.364610
H21	H2	0.379210	0.733690	0.379210
C1951	C195	0.864610	0.700560	0.864610
H31	H3	0.879210	0.733690	0.879210
C1961	C196	0.635390	0.799440	0.864610
H41	H4	0.620790	0.766310	0.879210
C1971	C197	0.635390	0.299440	0.364610
H51	H5	0.620790	0.266310	0.379210
C1981	C198	0.635390	0.200560	0.135390
H61	H6	0.620790	0.233690	0.120790
C1991	C199	0.635390	0.700560	0.635390
H71	H7	0.620790	0.733690	0.620790
C2001	C200	0.364610	0.799440	0.135390
H81	H8	0.379210	0.766310	0.120790
C2011	C201	0.364610	0.299440	0.635390
H91	H9	0.379210	0.266310	0.620790
C2021	C202	0.864610	0.799440	0.635390
H101	H10	0.879210	0.766310	0.620790
C2031	C203	0.864610	0.364610	0.200560
H111	H11	0.879210	0.379210	0.233690
C2041	C204	0.864610	0.864610	0.700560
H121	H12	0.879210	0.879210	0.733690
C2051	C205	0.864610	0.635390	0.799440
H131	H13	0.879210	0.620790	0.766310
C2061	C206	0.864610	0.135390	0.299440
H141	H14	0.879210	0.120790	0.266310
C2071	C207	0.135390	0.635390	0.200560
H151	H15	0.120790	0.620790	0.233690
C2081	C208	0.135390	0.135390	0.700560
H161	H16	0.120790	0.120790	0.733690
C2091	C209	0.635390	0.635390	0.700560
H171	H17	0.620790	0.620790	0.733690
C2101	C210	0.135390	0.364610	0.799440
H181	H18	0.120790	0.379210	0.766310
C2111	C211	0.135390	0.864610	0.299440
H191	H19	0.120790	0.879210	0.266310
C2121	C212	0.635390	0.864610	0.799440
H201	H20	0.620790	0.879210	0.766310
C2131	C213	0.200560	0.864610	0.364610
H211	H21	0.233690	0.879210	0.379210
C2141	C214	0.700560	0.864610	0.864610
H221	H22	0.733690	0.879210	0.879210
C2151	C215	0.799440	0.864610	0.635390
H231	H23	0.766310	0.879210	0.620790
C2161	C216	0.299440	0.864610	0.135390
H241	H24	0.266310	0.879210	0.120790
C2171	C217	0.200560	0.135390	0.635390
H251	H25	0.233690	0.120790	0.620790
C2181	C218	0.700560	0.135390	0.135390
H261	H26	0.733690	0.120790	0.120790
C2191	C219	0.700560	0.635390	0.635390
H271	H27	0.733690	0.620790	0.620790
C2201	C220	0.799440	0.135390	0.364610
H281	H28	0.766310	0.120790	0.379210
C2211	C221	0.799440	0.635390	0.864610
H291	H29	0.766310	0.620790	0.879210
C2221	C222	0.299440	0.135390	0.864610
H301	H30	0.266310	0.120790	0.879210
C2231	C223	0.200560	0.364610	0.135390
H311	H31	0.233690	0.379210	0.120790
C2241	C224	0.200560	0.864610	0.635390
H321	H32	0.233690	0.879210	0.620790
C2251	C225	0.700560	0.364610	0.635390
H331	H33	0.733690	0.379210	0.620790
C2261	C226	0.799440	0.635390	0.135390
H341	H34	0.766310	0.620790	0.120790
C2271	C227	0.299440	0.635390	0.635390
H351	H35	0.266310	0.620790	0.620790
C2281	C228	0.200560	0.635390	0.864610
H361	H36	0.233690	0.620790	0.879210
C2291	C229	0.700560	0.635390	0.364610
H371	H37	0.733690	0.620790	0.379210
C2301	C230	0.799440	0.364610	0.864610
H381	H38	0.766310	0.379210	0.879210
C2311	C231	0.299440	0.364610	0.364610
H391	H39	0.266310	0.379210	0.379210
C2321	C232	0.299440	0.864610	0.864610
H401	H40	0.266310	0.879210	0.879210
C2331	C233	0.364610	0.864610	0.799440
H411	H41	0.379210	0.879210	0.766310
C2341	C234	0.364610	0.364610	0.299440
H421	H42	0.379210	0.379210	0.266310
C2351	C235	0.864610	0.864610	0.299440
H431	H43	0.879210	0.879210	0.266310
C2361	C236	0.635390	0.864610	0.200560
H441	H44	0.620790	0.879210	0.233690
C2371	C237	0.635390	0.364610	0.700560
H451	H45	0.620790	0.379210	0.733690
C2381	C238	0.635390	0.135390	0.799440
H461	H46	0.620790	0.120790	0.766310
C2391	C239	0.635390	0.635390	0.299440
H471	H47	0.620790	0.620790	0.266310
C2401	C240	0.364610	0.135390	0.200560
H481	H48	0.379210	0.120790	0.233690
C2411	C241	0.364610	0.635390	0.700560
H491	H49	0.379210	0.620790	0.733690
C2421	C242	0.864610	0.635390	0.200560
H501	H50	0.879210	0.620790	0.233690
C2431	C243	0.864610	0.200560	0.635390
H511	H51	0.879210	0.233690	0.620790
C2441	C244	0.864610	0.700560	0.135390
H521	H52	0.879210	0.733690	0.120790
C2451	C245	0.864610	0.799440	0.364610
H531	H53	0.879210	0.766310	0.379210
C2461	C246	0.864610	0.299440	0.864610
H541	H54	0.879210	0.266310	0.879210
C2471	C247	0.135390	0.200560	0.364610
H551	H55	0.120790	0.233690	0.379210
C2481	C248	0.135390	0.700560	0.864610
H561	H56	0.120790	0.733690	0.879210
C2491	C249	0.635390	0.200560	0.864610
H571	H57	0.620790	0.233690	0.879210
C2501	C250	0.135390	0.799440	0.635390
H581	H58	0.120790	0.766310	0.620790
C2511	C251	0.135390	0.299440	0.135390
H591	H59	0.120790	0.266310	0.120790
C2521	C252	0.635390	0.299440	0.635390
H601	H60	0.620790	0.266310	0.620790
C2531	C253	0.635390	0.799440	0.135390
H611	H61	0.620790	0.766310	0.120790
C2541	C254	0.364610	0.200560	0.135390
H621	H62	0.379210	0.233690	0.120790
C2551	C255	0.364610	0.700560	0.635390
H631	H63	0.379210	0.733690	0.620790
C2561	C256	0.364610	0.799440	0.864610
H641	H64	0.379210	0.766310	0.879210
C2571	C257	0.364610	0.299440	0.364610
H651	H65	0.379210	0.266310	0.379210
C2581	C258	0.635390	0.700560	0.364610
H661	H66	0.620790	0.733690	0.379210
C2591	C259	0.135390	0.635390	0.799440
H671	H67	0.120790	0.620790	0.766310
C2601	C260	0.135390	0.135390	0.299440
H681	H68	0.120790	0.120790	0.266310
C2611	C261	0.135390	0.364610	0.200560
H691	H69	0.120790	0.379210	0.233690
C2621	C262	0.135390	0.864610	0.700560
H701	H70	0.120790	0.879210	0.733690
C2631	C263	0.864610	0.364610	0.799440
H711	H71	0.879210	0.379210	0.766310
C2641	C264	0.864610	0.135390	0.700560
H721	H72	0.879210	0.120790	0.733690
C2651	C265	0.799440	0.135390	0.635390
H731	H73	0.766310	0.120790	0.620790
C2661	C266	0.299440	0.135390	0.135390
H741	H74	0.266310	0.120790	0.120790
C2671	C267	0.200560	0.135390	0.364610
H751	H75	0.233690	0.120790	0.379210
C2681	C268	0.700560	0.135390	0.864610
H761	H76	0.733690	0.120790	0.879210
C2691	C269	0.799440	0.864610	0.364610
H771	H77	0.766310	0.879210	0.379210
C2701	C270	0.700560	0.864610	0.135390
H781	H78	0.733690	0.879210	0.120790
C2711	C271	0.299440	0.635390	0.364610
H791	H79	0.266310	0.620790	0.379210
C2721	C272	0.200560	0.364610	0.864610
H801	H80	0.233690	0.379210	0.879210
C2731	C273	0.700560	0.364610	0.364610
H811	H81	0.733690	0.379210	0.379210
C2741	C274	0.799440	0.364610	0.135390
H821	H82	0.766310	0.379210	0.120790
C2751	C275	0.299440	0.364610	0.635390
H831	H83	0.266310	0.379210	0.620790
C2761	C276	0.200560	0.635390	0.135390
H841	H84	0.233690	0.620790	0.120790
C2771	C277	0.635390	0.135390	0.200560
H851	H85	0.620790	0.120790	0.233690
C2781	C278	0.364610	0.135390	0.799440
H861	H86	0.379210	0.120790	0.766310
C2791	C279	0.364610	0.635390	0.299440
H871	H87	0.379210	0.620790	0.266310
C2801	C280	0.364610	0.864610	0.200560
H881	H88	0.379210	0.879210	0.233690
C2811	C281	0.364610	0.364610	0.700560
H891	H89	0.379210	0.379210	0.733690
C2821	C282	0.635390	0.364610	0.299440
H901	H90	0.620790	0.379210	0.266310
C2831	C283	0.135390	0.799440	0.364610
H911	H91	0.120790	0.766310	0.379210
C2841	C284	0.135390	0.299440	0.864610
H921	H92	0.120790	0.266310	0.879210
C2851	C285	0.135390	0.200560	0.635390
H931	H93	0.120790	0.233690	0.620790
C2861	C286	0.135390	0.700560	0.135390
H941	H94	0.120790	0.733690	0.120790
C2871	C287	0.864610	0.299440	0.135390
H951	H95	0.879210	0.266310	0.120790
C2881	C288	0.864610	0.200560	0.364610
H961	H96	0.879210	0.233690	0.379210
Cr11	Cr1	0.288000	0.288000	0.000000
Cr21	Cr2	0.288000	0.788000	0.500000
Cr31	Cr3	0.788000	0.288000	0.500000
Cr41	Cr4	0.788000	0.788000	0.000000
Cr51	Cr5	0.712000	0.712000	0.000000
Cr61	Cr6	0.712000	0.212000	0.500000
Cr71	Cr7	0.212000	0.712000	0.500000
Cr81	Cr8	0.212000	0.212000	0.000000
Cr91	Cr9	0.712000	0.288000	0.000000
Cr101	Cr10	0.712000	0.788000	0.500000
Cr111	Cr11	0.212000	0.288000	0.500000
Cr121	Cr12	0.212000	0.788000	0.000000
Cr131	Cr13	0.288000	0.712000	0.000000
Cr141	Cr14	0.288000	0.212000	0.500000
Cr151	Cr15	0.788000	0.712000	0.500000
Cr161	Cr16	0.788000	0.212000	0.000000
Cr171	Cr17	0.000000	0.288000	0.288000
Cr181	Cr18	0.000000	0.788000	0.788000
Cr191	Cr19	0.500000	0.288000	0.788000
Cr201	Cr20	0.500000	0.788000	0.288000
Cr211	Cr21	0.000000	0.712000	0.712000
Cr221	Cr22	0.000000	0.212000	0.212000
Cr231	Cr23	0.500000	0.712000	0.212000
Cr241	Cr24	0.500000	0.212000	0.712000
Cr251	Cr25	0.000000	0.712000	0.288000
Cr261	Cr26	0.000000	0.212000	0.788000
Cr271	Cr27	0.500000	0.712000	0.788000
Cr281	Cr28	0.500000	0.212000	0.288000
Cr291	Cr29	0.000000	0.288000	0.712000
Cr301	Cr30	0.000000	0.788000	0.212000
Cr311	Cr31	0.500000	0.288000	0.212000
Cr321	Cr32	0.500000	0.788000	0.712000
Cr331	Cr33	0.288000	0.000000	0.288000
Cr341	Cr34	0.288000	0.500000	0.788000
Cr351	Cr35	0.788000	0.000000	0.788000
Cr361	Cr36	0.788000	0.500000	0.288000
Cr371	Cr37	0.712000	0.000000	0.712000
Cr381	Cr38	0.712000	0.500000	0.212000
Cr391	Cr39	0.212000	0.000000	0.212000
Cr401	Cr40	0.212000	0.500000	0.712000
Cr411	Cr41	0.288000	0.000000	0.712000
Cr421	Cr42	0.288000	0.500000	0.212000
Cr431	Cr43	0.788000	0.000000	0.212000
Cr441	Cr44	0.788000	0.500000	0.712000
Cr451	Cr45	0.712000	0.000000	0.288000
Cr461	Cr46	0.712000	0.500000	0.788000
Cr471	Cr47	0.212000	0.000000	0.788000
Cr481	Cr48	0.212000	0.500000	0.288000
