data_ZIGWUJ_clean_PM
_symmetry_space_group_name_H-M	'P1'
_cell_length_a	10.659600
_cell_length_b	16.473300
_cell_length_c	21.779100
_cell_angle_alpha	92.688000
_cell_angle_beta	90.000000
_cell_angle_gamma	90.000000
_symmetry_Int_Tables_number 1

loop_
_symmetry_equiv_pos_as_xyz
'x,y,z'

loop_
_atom_site_label
_atom_site_type_symbol
_atom_site_fract_x
_atom_site_fract_y
_atom_site_fract_z
Mn11	Mn1	0.693950	0.738660	0.134580
Mn21	Mn2	0.734830	0.752590	0.974470
Mn31	Mn3	0.921190	0.773280	0.812430
Mn41	Mn4	0.193950	0.261340	0.365420
Mn51	Mn5	0.234830	0.247410	0.525530
Mn61	Mn6	0.421190	0.226720	0.687570
Mn71	Mn7	0.306050	0.261340	0.865420
Mn81	Mn8	0.265170	0.247410	0.025530
Mn91	Mn9	0.078810	0.226720	0.187570
Mn101	Mn10	0.806050	0.738660	0.634580
Mn111	Mn11	0.765170	0.752590	0.474470
Mn121	Mn12	0.578810	0.773280	0.312430
H11	H1	0.744800	0.537800	0.127800
H21	H2	0.885200	0.552900	0.109600
H31	H3	0.709400	0.418700	0.994200
H41	H4	0.849800	0.439500	0.978000
H51	H5	0.756200	0.416900	0.090900
H61	H6	0.898100	0.431400	0.074100
H71	H7	0.713200	0.558500	0.963500
H81	H8	0.772300	0.558700	0.746800
H91	H9	0.404900	0.070200	0.908500
H101	H10	0.056500	0.740300	0.067900
H111	H11	0.673900	0.429800	0.716400
H121	H12	0.538400	0.966900	0.950700
H131	H13	0.266500	0.749300	0.114100
H141	H14	0.244800	0.462200	0.372200
H151	H15	0.385200	0.447100	0.390400
H161	H16	0.209400	0.581300	0.505800
H171	H17	0.349800	0.560500	0.522000
H181	H18	0.256200	0.583100	0.409100
H191	H19	0.398100	0.568600	0.425900
H201	H20	0.213200	0.441500	0.536500
H211	H21	0.272300	0.441300	0.753200
H221	H22	0.904900	0.929800	0.591500
H231	H23	0.556500	0.259700	0.432100
H241	H24	0.173900	0.570200	0.783600
H251	H25	0.038400	0.033100	0.549300
H261	H26	0.766500	0.250700	0.385900
H271	H27	0.255200	0.462200	0.872200
H281	H28	0.114800	0.447100	0.890400
H291	H29	0.290600	0.581300	0.005800
H301	H30	0.150200	0.560500	0.022000
H311	H31	0.243800	0.583100	0.909100
H321	H32	0.101900	0.568600	0.925900
H331	H33	0.286800	0.441500	0.036500
H341	H34	0.227700	0.441300	0.253200
H351	H35	0.595100	0.929800	0.091500
H361	H36	0.943500	0.259700	0.932100
H371	H37	0.326100	0.570200	0.283600
H381	H38	0.461600	0.033100	0.049300
H391	H39	0.733500	0.250700	0.885900
H401	H40	0.755200	0.537800	0.627800
H411	H41	0.614800	0.552900	0.609600
H421	H42	0.790600	0.418700	0.494200
H431	H43	0.650200	0.439500	0.478000
H441	H44	0.743800	0.416900	0.590900
H451	H45	0.601900	0.431400	0.574100
H461	H46	0.786800	0.558500	0.463500
H471	H47	0.727700	0.558700	0.246800
H481	H48	0.095100	0.070200	0.408500
H491	H49	0.443500	0.740300	0.567900
H501	H50	0.826100	0.429800	0.216400
H511	H51	0.961600	0.966900	0.450700
H521	H52	0.233500	0.749300	0.614100
C11	C1	0.804100	0.534800	0.094000
C21	C2	0.779200	0.454700	0.004200
C31	C3	0.813400	0.451800	0.069600
C41	C4	0.763500	0.586700	0.046900
C51	C5	0.711300	0.534200	0.770200
C61	C6	0.471600	0.045800	0.887100
C71	C7	0.129400	0.749100	0.045700
C81	C8	0.669400	0.566700	0.824500
C91	C9	0.654200	0.459800	0.752300
C101	C10	0.547800	0.985600	0.911300
C111	C11	0.712100	0.642900	0.856300
C121	C12	0.636800	0.957800	0.871100
C131	C13	0.250900	0.753900	0.072400
C141	C14	0.024800	0.754600	0.940800
C151	C15	0.484800	0.364000	0.787600
C161	C16	0.567200	0.437100	0.793500
C171	C17	0.341900	0.765900	0.029900
C181	C18	0.452800	0.125700	0.787800
C191	C19	0.728600	0.891400	0.878280
C201	C20	0.131900	0.759000	0.983400
C211	C21	0.480400	0.768100	0.039200
C221	C22	0.505400	0.065000	0.828900
C231	C23	0.304100	0.465200	0.406000
C241	C24	0.279200	0.545300	0.495800
C251	C25	0.313400	0.548200	0.430400
C261	C26	0.263500	0.413300	0.453100
C271	C27	0.211300	0.465800	0.729800
C281	C28	0.971600	0.954200	0.612900
C291	C29	0.629400	0.250900	0.454300
C301	C30	0.169400	0.433300	0.675500
C311	C31	0.154200	0.540200	0.747700
C321	C32	0.047800	0.014400	0.588700
C331	C33	0.212100	0.357100	0.643700
C341	C34	0.136800	0.042200	0.628900
C351	C35	0.750900	0.246100	0.427600
C361	C36	0.524800	0.245400	0.559200
C371	C37	0.984800	0.636000	0.712400
C381	C38	0.067200	0.562900	0.706500
C391	C39	0.841900	0.234100	0.470100
C401	C40	0.952800	0.874300	0.712200
C411	C41	0.228600	0.108600	0.621720
C421	C42	0.631900	0.241000	0.516600
C431	C43	0.980400	0.231900	0.460800
C441	C44	0.005400	0.935000	0.671100
C451	C45	0.195900	0.465200	0.906000
C461	C46	0.220800	0.545300	0.995800
C471	C47	0.186600	0.548200	0.930400
C481	C48	0.236500	0.413300	0.953100
C491	C49	0.288700	0.465800	0.229800
C501	C50	0.528400	0.954200	0.112900
C511	C51	0.870600	0.250900	0.954300
C521	C52	0.330600	0.433300	0.175500
C531	C53	0.345800	0.540200	0.247700
C541	C54	0.452200	0.014400	0.088700
C551	C55	0.287900	0.357100	0.143700
C561	C56	0.363200	0.042200	0.128900
C571	C57	0.749100	0.246100	0.927600
C581	C58	0.975200	0.245400	0.059200
C591	C59	0.515200	0.636000	0.212400
C601	C60	0.432800	0.562900	0.206500
C611	C61	0.658100	0.234100	0.970100
C621	C62	0.547200	0.874300	0.212200
C631	C63	0.271400	0.108600	0.121720
C641	C64	0.868100	0.241000	0.016600
C651	C65	0.519600	0.231900	0.960800
C661	C66	0.494600	0.935000	0.171100
C671	C67	0.695900	0.534800	0.594000
C681	C68	0.720800	0.454700	0.504200
C691	C69	0.686600	0.451800	0.569600
C701	C70	0.736500	0.586700	0.546900
C711	C71	0.788700	0.534200	0.270200
C721	C72	0.028400	0.045800	0.387100
C731	C73	0.370600	0.749100	0.545700
C741	C74	0.830600	0.566700	0.324500
C751	C75	0.845800	0.459800	0.252300
C761	C76	0.952200	0.985600	0.411300
C771	C77	0.787900	0.642900	0.356300
C781	C78	0.863200	0.957800	0.371100
C791	C79	0.249100	0.753900	0.572400
C801	C80	0.475200	0.754600	0.440800
C811	C81	0.015200	0.364000	0.287600
C821	C82	0.932800	0.437100	0.293500
C831	C83	0.158100	0.765900	0.529900
C841	C84	0.047200	0.125700	0.287800
C851	C85	0.771400	0.891400	0.378280
C861	C86	0.368100	0.759000	0.483400
C871	C87	0.019600	0.768100	0.539200
C881	C88	0.994600	0.065000	0.328900
S11	S1	0.554890	0.506440	0.854280
S21	S2	0.630840	0.007830	0.803470
S31	S3	0.281680	0.772890	0.957390
S41	S4	0.054890	0.493560	0.645720
S51	S5	0.130840	0.992170	0.696530
S61	S6	0.781680	0.227110	0.542610
S71	S7	0.445110	0.493560	0.145720
S81	S8	0.369160	0.992170	0.196530
S91	S9	0.718320	0.227110	0.042610
S101	S10	0.945110	0.506440	0.354280
S111	S11	0.869160	0.007830	0.303470
S121	S12	0.218320	0.772890	0.457390
N11	N1	0.743600	0.540600	0.996900
N21	N2	0.243600	0.459400	0.503100
N31	N3	0.256400	0.459400	0.003100
N41	N4	0.756400	0.540600	0.496900
O11	O1	0.673500	0.658100	0.909890
O21	O2	0.785600	0.685500	0.827000
O31	O3	0.545600	0.779700	0.993090
O41	O4	0.924400	0.727300	0.960940
O51	O5	0.394300	0.360600	0.824040
O61	O6	0.351500	0.163000	0.802780
O71	O7	0.044400	0.776900	0.886930
O81	O8	0.510700	0.135700	0.738690
O91	O9	0.780600	0.863900	0.830570
O101	O10	0.746100	0.867700	0.932050
O111	O11	0.517800	0.756600	0.092590
O121	O12	0.514000	0.313500	0.745180
O131	O13	0.741100	0.659770	0.050250
O141	O14	0.173500	0.341900	0.590110
O151	O15	0.285600	0.314500	0.673000
O161	O16	0.045600	0.220300	0.506910
O171	O17	0.424400	0.272700	0.539060
O181	O18	0.894300	0.639400	0.675960
O191	O19	0.851500	0.837000	0.697220
O201	O20	0.544400	0.223100	0.613070
O211	O21	0.010700	0.864300	0.761310
O221	O22	0.280600	0.136100	0.669430
O231	O23	0.246100	0.132300	0.567950
O241	O24	0.017800	0.243400	0.407410
O251	O25	0.014000	0.686500	0.754820
O261	O26	0.241100	0.340230	0.449750
O271	O27	0.326500	0.341900	0.090110
O281	O28	0.214400	0.314500	0.173000
O291	O29	0.454400	0.220300	0.006910
O301	O30	0.075600	0.272700	0.039060
O311	O31	0.605700	0.639400	0.175960
O321	O32	0.648500	0.837000	0.197220
O331	O33	0.955600	0.223100	0.113070
O341	O34	0.489300	0.864300	0.261310
O351	O35	0.219400	0.136100	0.169430
O361	O36	0.253900	0.132300	0.067950
O371	O37	0.482200	0.243400	0.907410
O381	O38	0.486000	0.686500	0.254820
O391	O39	0.258900	0.340230	0.949750
O401	O40	0.826500	0.658100	0.409890
O411	O41	0.714400	0.685500	0.327000
O421	O42	0.954400	0.779700	0.493090
O431	O43	0.575600	0.727300	0.460940
O441	O44	0.105700	0.360600	0.324040
O451	O45	0.148500	0.163000	0.302780
O461	O46	0.455600	0.776900	0.386930
O471	O47	0.989300	0.135700	0.238690
O481	O48	0.719400	0.863900	0.330570
O491	O49	0.753900	0.867700	0.432050
O501	O50	0.982200	0.756600	0.592590
O511	O51	0.986000	0.313500	0.245180
O521	O52	0.758900	0.659770	0.550250
