data_ZIHFUR01_clean_PM
_symmetry_space_group_name_H-M	'P1'
_cell_length_a	24.272000
_cell_length_b	24.272000
_cell_length_c	4.937000
_cell_angle_alpha	90.000000
_cell_angle_beta	90.000000
_cell_angle_gamma	90.000000
_symmetry_Int_Tables_number 1

loop_
_symmetry_equiv_pos_as_xyz
'x,y,z'

loop_
_atom_site_label
_atom_site_type_symbol
_atom_site_fract_x
_atom_site_fract_y
_atom_site_fract_z
N11	N1	0.929700	0.471000	0.517800
C11	C1	0.855300	0.465300	0.881900
C21	C2	0.835600	0.513300	0.976000
C31	C3	0.792300	0.513400	0.170000
C41	C4	0.771800	0.464500	0.273200
C51	C5	0.795900	0.414700	0.166000
C61	C6	0.834700	0.415700	0.985000
C71	C7	0.896600	0.468200	0.676700
H11	H1	0.850200	0.546500	0.915000
H21	H2	0.777500	0.546700	0.228000
H31	H3	0.783100	0.380800	0.228000
H41	H4	0.849200	0.382500	0.922000
N21	N2	0.429700	0.971000	0.017800
C81	C8	0.355300	0.965300	0.381900
C91	C9	0.335600	0.013300	0.476000
C101	C10	0.292300	0.013400	0.670000
C111	C11	0.271800	0.964500	0.773200
C121	C12	0.295900	0.914700	0.666000
C131	C13	0.334700	0.915700	0.485000
C141	C14	0.396600	0.968200	0.176700
H51	H5	0.350200	0.046500	0.415000
H61	H6	0.277500	0.046700	0.728000
H71	H7	0.283100	0.880800	0.728000
H81	H8	0.349200	0.882500	0.422000
N31	N3	0.070300	0.529000	0.517800
C151	C15	0.144700	0.534700	0.881900
C161	C16	0.164400	0.486700	0.976000
C171	C17	0.207700	0.486600	0.170000
C181	C18	0.228200	0.535500	0.273200
C191	C19	0.204100	0.585300	0.166000
C201	C20	0.165300	0.584300	0.985000
C211	C21	0.103400	0.531800	0.676700
H91	H9	0.149800	0.453500	0.915000
H101	H10	0.222500	0.453300	0.228000
H111	H11	0.216900	0.619200	0.228000
H121	H12	0.150800	0.617500	0.922000
N41	N4	0.570300	0.029000	0.017800
C221	C22	0.644700	0.034700	0.381900
C231	C23	0.664400	0.986700	0.476000
C241	C24	0.707700	0.986600	0.670000
C251	C25	0.728200	0.035500	0.773200
C261	C26	0.704100	0.085300	0.666000
C271	C27	0.665300	0.084300	0.485000
C281	C28	0.603400	0.031800	0.176700
H131	H13	0.649800	0.953500	0.415000
H141	H14	0.722500	0.953300	0.728000
H151	H15	0.716900	0.119200	0.728000
H161	H16	0.650800	0.117500	0.422000
N51	N5	0.471000	0.070300	0.482200
C291	C29	0.465300	0.144700	0.118100
C301	C30	0.513300	0.164400	0.024000
C311	C31	0.513400	0.207700	0.830000
C321	C32	0.464500	0.228200	0.726800
C331	C33	0.414700	0.204100	0.834000
C341	C34	0.415700	0.165300	0.015000
C351	C35	0.468200	0.103400	0.323300
H171	H17	0.546500	0.149800	0.085000
H181	H18	0.546700	0.222500	0.772000
H191	H19	0.380800	0.216900	0.772000
H201	H20	0.382500	0.150800	0.078000
N61	N6	0.971000	0.570300	0.982200
C361	C36	0.965300	0.644700	0.618100
C371	C37	0.013300	0.664400	0.524000
C381	C38	0.013400	0.707700	0.330000
C391	C39	0.964500	0.728200	0.226800
C401	C40	0.914700	0.704100	0.334000
C411	C41	0.915700	0.665300	0.515000
C421	C42	0.968200	0.603400	0.823300
H211	H21	0.046500	0.649800	0.585000
H221	H22	0.046700	0.722500	0.272000
H231	H23	0.880800	0.716900	0.272000
H241	H24	0.882500	0.650800	0.578000
N71	N7	0.529000	0.929700	0.482200
C431	C43	0.534700	0.855300	0.118100
C441	C44	0.486700	0.835600	0.024000
C451	C45	0.486600	0.792300	0.830000
C461	C46	0.535500	0.771800	0.726800
C471	C47	0.585300	0.795900	0.834000
C481	C48	0.584300	0.834700	0.015000
C491	C49	0.531800	0.896600	0.323300
H251	H25	0.453500	0.850200	0.085000
H261	H26	0.453300	0.777500	0.772000
H271	H27	0.619200	0.783100	0.772000
H281	H28	0.617500	0.849200	0.078000
N81	N8	0.029000	0.429700	0.982200
C501	C50	0.034700	0.355300	0.618100
C511	C51	0.986700	0.335600	0.524000
C521	C52	0.986600	0.292300	0.330000
C531	C53	0.035500	0.271800	0.226800
C541	C54	0.085300	0.295900	0.334000
C551	C55	0.084300	0.334700	0.515000
C561	C56	0.031800	0.396600	0.823300
H291	H29	0.953500	0.350200	0.585000
H301	H30	0.953300	0.277500	0.272000
H311	H31	0.119200	0.283100	0.272000
H321	H32	0.117500	0.349200	0.578000
N91	N9	0.570300	0.471000	0.232200
C571	C57	0.644700	0.465300	0.868100
C581	C58	0.664400	0.513300	0.774000
C591	C59	0.707700	0.513400	0.580000
C601	C60	0.728200	0.464500	0.476800
C611	C61	0.704100	0.414700	0.584000
C621	C62	0.665300	0.415700	0.765000
C631	C63	0.603400	0.468200	0.073300
H331	H33	0.649800	0.546500	0.835000
H341	H34	0.722500	0.546700	0.522000
H351	H35	0.716900	0.380800	0.522000
H361	H36	0.650800	0.382500	0.828000
N101	N10	0.070300	0.971000	0.732200
C641	C64	0.144700	0.965300	0.368100
C651	C65	0.164400	0.013300	0.274000
C661	C66	0.207700	0.013400	0.080000
C671	C67	0.228200	0.964500	0.976800
C681	C68	0.204100	0.914700	0.084000
C691	C69	0.165300	0.915700	0.265000
C701	C70	0.103400	0.968200	0.573300
H371	H37	0.149800	0.046500	0.335000
H381	H38	0.222500	0.046700	0.022000
H391	H39	0.216900	0.880800	0.022000
H401	H40	0.150800	0.882500	0.328000
N111	N11	0.429700	0.529000	0.232200
C711	C71	0.355300	0.534700	0.868100
C721	C72	0.335600	0.486700	0.774000
C731	C73	0.292300	0.486600	0.580000
C741	C74	0.271800	0.535500	0.476800
C751	C75	0.295900	0.585300	0.584000
C761	C76	0.334700	0.584300	0.765000
C771	C77	0.396600	0.531800	0.073300
H411	H41	0.350200	0.453500	0.835000
H421	H42	0.277500	0.453300	0.522000
H431	H43	0.283100	0.619200	0.522000
H441	H44	0.349200	0.617500	0.828000
N121	N12	0.929700	0.029000	0.732200
C781	C78	0.855300	0.034700	0.368100
C791	C79	0.835600	0.986700	0.274000
C801	C80	0.792300	0.986600	0.080000
C811	C81	0.771800	0.035500	0.976800
C821	C82	0.795900	0.085300	0.084000
C831	C83	0.834700	0.084300	0.265000
C841	C84	0.896600	0.031800	0.573300
H451	H45	0.850200	0.953500	0.335000
H461	H46	0.777500	0.953300	0.022000
H471	H47	0.783100	0.119200	0.022000
H481	H48	0.849200	0.117500	0.328000
N131	N13	0.029000	0.070300	0.267800
C851	C85	0.034700	0.144700	0.631900
C861	C86	0.986700	0.164400	0.726000
C871	C87	0.986600	0.207700	0.920000
C881	C88	0.035500	0.228200	0.023200
C891	C89	0.085300	0.204100	0.916000
C901	C90	0.084300	0.165300	0.735000
C911	C91	0.031800	0.103400	0.426700
H491	H49	0.953500	0.149800	0.665000
H501	H50	0.953300	0.222500	0.978000
H511	H51	0.119200	0.216900	0.978000
H521	H52	0.117500	0.150800	0.672000
N141	N14	0.529000	0.570300	0.767800
C921	C92	0.534700	0.644700	0.131900
C931	C93	0.486700	0.664400	0.226000
C941	C94	0.486600	0.707700	0.420000
C951	C95	0.535500	0.728200	0.523200
C961	C96	0.585300	0.704100	0.416000
C971	C97	0.584300	0.665300	0.235000
C981	C98	0.531800	0.603400	0.926700
H531	H53	0.453500	0.649800	0.165000
H541	H54	0.453300	0.722500	0.478000
H551	H55	0.619200	0.716900	0.478000
H561	H56	0.617500	0.650800	0.172000
N151	N15	0.971000	0.929700	0.267800
C991	C99	0.965300	0.855300	0.631900
C1001	C100	0.013300	0.835600	0.726000
C1011	C101	0.013400	0.792300	0.920000
C1021	C102	0.964500	0.771800	0.023200
C1031	C103	0.914700	0.795900	0.916000
C1041	C104	0.915700	0.834700	0.735000
C1051	C105	0.968200	0.896600	0.426700
H571	H57	0.046500	0.850200	0.665000
H581	H58	0.046700	0.777500	0.978000
H591	H59	0.880800	0.783100	0.978000
H601	H60	0.882500	0.849200	0.672000
N161	N16	0.471000	0.429700	0.767800
C1061	C106	0.465300	0.355300	0.131900
C1071	C107	0.513300	0.335600	0.226000
C1081	C108	0.513400	0.292300	0.420000
C1091	C109	0.464500	0.271800	0.523200
C1101	C110	0.414700	0.295900	0.416000
C1111	C111	0.415700	0.334700	0.235000
C1121	C112	0.468200	0.396600	0.926700
H611	H61	0.546500	0.350200	0.165000
H621	H62	0.546700	0.277500	0.478000
H631	H63	0.380800	0.283100	0.478000
H641	H64	0.382500	0.349200	0.172000
Ag11	Ag1	0.000000	0.500000	0.250000
Ag21	Ag2	0.500000	0.000000	0.750000
Ag31	Ag3	0.500000	0.500000	0.500000
Ag41	Ag4	0.000000	0.000000	0.000000
