data_ZIHTEP_clean_PM
_symmetry_space_group_name_H-M	'P1'
_cell_length_a	8.118000
_cell_length_b	11.568000
_cell_length_c	14.244000
_cell_angle_alpha	94.640000
_cell_angle_beta	97.440000
_cell_angle_gamma	103.000000
_symmetry_Int_Tables_number 1

loop_
_symmetry_equiv_pos_as_xyz
'x,y,z'

loop_
_atom_site_label
_atom_site_type_symbol
_atom_site_fract_x
_atom_site_fract_y
_atom_site_fract_z
Li11	Li1	0.461000	0.921000	0.414000
Li21	Li2	0.842000	0.413000	0.228000
Li31	Li3	0.931000	0.239000	0.106000
Li41	Li4	0.539000	0.079000	0.586000
Li51	Li5	0.158000	0.587000	0.772000
Li61	Li6	0.069000	0.761000	0.894000
Co11	Co1	0.886900	0.832900	0.205700
Co21	Co2	0.113100	0.167100	0.794300
H11	H1	0.664900	0.112200	0.193400
H21	H2	0.369000	0.992300	0.194900
H31	H3	0.257400	0.982900	0.096300
H41	H4	0.431000	0.946700	0.103400
H51	H5	0.429700	0.206700	0.011500
H61	H6	0.258500	0.145400	0.043100
H71	H7	0.373700	0.260500	0.102000
H81	H8	0.361000	0.113200	0.336100
H91	H9	0.586800	0.425000	0.481800
H101	H10	0.533500	0.320500	0.541800
H111	H11	0.689000	0.326800	0.487900
H121	H12	0.419500	0.323700	0.271300
H131	H13	0.265100	0.316000	0.326300
H141	H14	0.423000	0.423300	0.351800
H151	H15	0.135400	0.422200	0.042500
H161	H16	0.365700	0.681800	0.229300
H171	H17	0.172400	0.633100	0.232600
H181	H18	0.302900	0.560900	0.268500
H191	H19	0.430200	0.570900	0.048300
H201	H20	0.293600	0.642700	0.023200
H211	H21	0.435800	0.688600	0.110500
H221	H22	0.335100	0.887800	0.806600
H231	H23	0.631000	0.007700	0.805100
H241	H24	0.742600	0.017100	0.903700
H251	H25	0.569000	0.053300	0.896600
H261	H26	0.570300	0.793300	0.988500
H271	H27	0.741500	0.854600	0.956900
H281	H28	0.626300	0.739500	0.898000
H291	H29	0.639000	0.886800	0.663900
H301	H30	0.413200	0.575000	0.518200
H311	H31	0.466500	0.679500	0.458200
H321	H32	0.311000	0.673200	0.512100
H331	H33	0.580500	0.676300	0.728700
H341	H34	0.734900	0.684000	0.673700
H351	H35	0.577000	0.576700	0.648200
H361	H36	0.864600	0.577800	0.957500
H371	H37	0.634300	0.318200	0.770700
H381	H38	0.827600	0.366900	0.767400
H391	H39	0.697100	0.439100	0.731500
H401	H40	0.569800	0.429100	0.951700
H411	H41	0.706400	0.357300	0.976800
H421	H42	0.564200	0.311400	0.889500
C11	C1	0.933000	0.999000	0.184600
C21	C2	0.986000	0.800000	0.099000
C31	C3	0.814000	0.665000	0.211000
C41	C4	0.738000	0.863000	0.293200
C51	C5	0.101000	0.857000	0.298000
C61	C6	0.614000	0.164000	0.157000
C71	C7	0.371000	0.000000	0.129000
C81	C8	0.373000	0.188000	0.065000
C91	C9	0.435000	0.155000	0.392000
C101	C10	0.579000	0.342000	0.486000
C111	C11	0.386000	0.340000	0.332000
C121	C12	0.144000	0.458000	0.106000
C131	C13	0.276000	0.612000	0.223000
C141	C14	0.363000	0.620000	0.074000
C151	C15	0.067000	0.001000	0.815400
C161	C16	0.014000	0.200000	0.901000
C171	C17	0.186000	0.335000	0.789000
C181	C18	0.262000	0.137000	0.706800
C191	C19	0.899000	0.143000	0.702000
C201	C20	0.386000	0.836000	0.843000
C211	C21	0.629000	0.000000	0.871000
C221	C22	0.627000	0.812000	0.935000
C231	C23	0.565000	0.845000	0.608000
C241	C24	0.421000	0.658000	0.514000
C251	C25	0.614000	0.660000	0.668000
C261	C26	0.856000	0.542000	0.894000
C271	C27	0.724000	0.388000	0.777000
C281	C28	0.637000	0.380000	0.926000
N11	N1	0.966000	0.098000	0.169500
N21	N2	0.039000	0.778000	0.029400
N31	N3	0.772000	0.564000	0.213400
N41	N4	0.643000	0.881000	0.343500
N51	N5	0.228000	0.868000	0.346300
N61	N6	0.456000	0.121000	0.119000
N71	N7	0.466000	0.273000	0.402600
N81	N8	0.256000	0.553000	0.133300
N91	N9	0.034000	0.902000	0.830500
N101	N10	0.961000	0.222000	0.970600
N111	N11	0.228000	0.436000	0.786600
N121	N12	0.357000	0.119000	0.656500
N131	N13	0.772000	0.132000	0.653700
N141	N14	0.544000	0.879000	0.881000
N151	N15	0.534000	0.727000	0.597400
N161	N16	0.744000	0.447000	0.866700
O11	O1	0.707000	0.262400	0.152700
O21	O2	0.494000	0.097200	0.448500
O31	O3	0.040000	0.406000	0.161500
O41	O4	0.293000	0.737600	0.847300
O51	O5	0.506000	0.902800	0.551500
O61	O6	0.960000	0.594000	0.838500
