data_ZIJVOF01_clean_PM
_symmetry_space_group_name_H-M	'P1'
_cell_length_a	10.993200
_cell_length_b	10.993200
_cell_length_c	18.092800
_cell_angle_alpha	90.000000
_cell_angle_beta	90.000000
_cell_angle_gamma	90.000000
_symmetry_Int_Tables_number 1

loop_
_symmetry_equiv_pos_as_xyz
'x,y,z'

loop_
_atom_site_label
_atom_site_type_symbol
_atom_site_fract_x
_atom_site_fract_y
_atom_site_fract_z
Cu11	Cu1	0.615990	0.891510	0.143740
Cu21	Cu2	0.407730	0.101380	0.134580
Cu31	Cu3	0.384010	0.108490	0.643740
Cu41	Cu4	0.592270	0.898620	0.634580
Cu51	Cu5	0.108490	0.615990	0.393740
Cu61	Cu6	0.898620	0.407730	0.384580
Cu71	Cu7	0.891510	0.384010	0.893740
Cu81	Cu8	0.101380	0.592270	0.884580
H11	H1	0.833300	0.965800	0.283100
H21	H2	0.861300	0.972200	0.198300
H31	H3	0.913000	0.072000	0.251600
H41	H4	0.563000	0.414800	0.202400
H51	H5	0.444400	0.335700	0.205600
H61	H6	0.510600	0.373100	0.278900
H71	H7	0.498800	0.647800	0.312200
H81	H8	0.480000	0.598200	0.231700
H91	H9	0.589600	0.684800	0.249200
H101	H10	0.153600	0.028300	0.189400
H111	H11	0.100900	0.937900	0.248200
H121	H12	0.178900	0.049700	0.273700
H131	H13	0.166700	0.034200	0.783100
H141	H14	0.138700	0.027800	0.698300
H151	H15	0.087000	0.928000	0.751600
H161	H16	0.437000	0.585200	0.702400
H171	H17	0.555600	0.664300	0.705600
H181	H18	0.489400	0.626900	0.778900
H191	H19	0.501200	0.352200	0.812200
H201	H20	0.520000	0.401800	0.731700
H211	H21	0.410400	0.315200	0.749200
H221	H22	0.846400	0.971700	0.689400
H231	H23	0.899100	0.062100	0.748200
H241	H24	0.821100	0.950300	0.773700
H251	H25	0.034200	0.833300	0.533100
H261	H26	0.027800	0.861300	0.448300
H271	H27	0.928000	0.913000	0.501600
H281	H28	0.585200	0.563000	0.452400
H291	H29	0.664300	0.444400	0.455600
H301	H30	0.626900	0.510600	0.528900
H311	H31	0.352200	0.498800	0.562200
H321	H32	0.401800	0.480000	0.481700
H331	H33	0.315200	0.589600	0.499200
H341	H34	0.971700	0.153600	0.439400
H351	H35	0.062100	0.100900	0.498200
H361	H36	0.950300	0.178900	0.523700
H371	H37	0.965800	0.166700	0.033100
H381	H38	0.972200	0.138700	0.948300
H391	H39	0.072000	0.087000	0.001600
H401	H40	0.414800	0.437000	0.952400
H411	H41	0.335700	0.555600	0.955600
H421	H42	0.373100	0.489400	0.028900
H431	H43	0.647800	0.501200	0.062200
H441	H44	0.598200	0.520000	0.981700
H451	H45	0.684800	0.410400	0.999200
H461	H46	0.028300	0.846400	0.939400
H471	H47	0.937900	0.899100	0.998200
H481	H48	0.049700	0.821100	0.023700
C11	C1	0.845300	0.019400	0.241900
C21	C2	0.522100	0.350300	0.228100
C31	C3	0.734600	0.093200	0.230500
C41	C4	0.594900	0.240800	0.224500
C51	C5	0.712100	0.209300	0.254700
C61	C6	0.783100	0.283700	0.303900
C71	C7	0.506200	0.666700	0.260500
C81	C8	0.168600	0.989200	0.235900
C91	C9	0.429200	0.774000	0.242800
C101	C10	0.282200	0.913300	0.230400
C111	C11	0.308300	0.803100	0.265300
C121	C12	0.232000	0.736300	0.316400
C131	C13	0.154700	0.980600	0.741900
C141	C14	0.477900	0.649700	0.728100
C151	C15	0.265400	0.906800	0.730500
C161	C16	0.405100	0.759200	0.724500
C171	C17	0.287900	0.790700	0.754700
C181	C18	0.216900	0.716300	0.803900
C191	C19	0.493800	0.333300	0.760500
C201	C20	0.831400	0.010800	0.735900
C211	C21	0.570800	0.226000	0.742800
C221	C22	0.717800	0.086700	0.730400
C231	C23	0.691700	0.196900	0.765300
C241	C24	0.768000	0.263700	0.816400
C251	C25	0.980600	0.845300	0.491900
C261	C26	0.649700	0.522100	0.478100
C271	C27	0.906800	0.734600	0.480500
C281	C28	0.759200	0.594900	0.474500
C291	C29	0.790700	0.712100	0.504700
C301	C30	0.716300	0.783100	0.553900
C311	C31	0.333300	0.506200	0.510500
C321	C32	0.010800	0.168600	0.485900
C331	C33	0.226000	0.429200	0.492800
C341	C34	0.086700	0.282200	0.480400
C351	C35	0.196900	0.308300	0.515300
C361	C36	0.263700	0.232000	0.566400
C371	C37	0.019400	0.154700	0.991900
C381	C38	0.350300	0.477900	0.978100
C391	C39	0.093200	0.265400	0.980500
C401	C40	0.240800	0.405100	0.974500
C411	C41	0.209300	0.287900	0.004700
C421	C42	0.283700	0.216900	0.053900
C431	C43	0.666700	0.493800	0.010500
C441	C44	0.989200	0.831400	0.985900
C451	C45	0.774000	0.570800	0.992800
C461	C46	0.913300	0.717800	0.980400
C471	C47	0.803100	0.691700	0.015300
C481	C48	0.736300	0.768000	0.066400
N11	N1	0.643400	0.046700	0.192500
N21	N2	0.561600	0.141700	0.183700
N31	N3	0.465200	0.863200	0.196900
N41	N4	0.375300	0.954500	0.193200
N51	N5	0.356600	0.953300	0.692500
N61	N6	0.438400	0.858300	0.683700
N71	N7	0.534800	0.136800	0.696900
N81	N8	0.624700	0.045500	0.693200
N91	N9	0.953300	0.643400	0.442500
N101	N10	0.858300	0.561600	0.433700
N111	N11	0.136800	0.465200	0.446900
N121	N12	0.045500	0.375300	0.443200
N131	N13	0.046700	0.356600	0.942500
N141	N14	0.141700	0.438400	0.933700
N151	N15	0.863200	0.534800	0.946900
N161	N16	0.954500	0.624700	0.943200
O11	O1	0.884900	0.248700	0.329500
O21	O2	0.747200	0.390400	0.324600
O31	O3	0.267700	0.634300	0.343900
O41	O4	0.129100	0.771200	0.335800
O51	O5	0.115100	0.751300	0.829500
O61	O6	0.252800	0.609600	0.824600
O71	O7	0.732300	0.365700	0.843900
O81	O8	0.870900	0.228800	0.835800
O91	O9	0.751300	0.884900	0.579500
O101	O10	0.609600	0.747200	0.574600
O111	O11	0.365700	0.267700	0.593900
O121	O12	0.228800	0.129100	0.585800
O131	O13	0.248700	0.115100	0.079500
O141	O14	0.390400	0.252800	0.074600
O151	O15	0.634300	0.732300	0.093900
O161	O16	0.771200	0.870900	0.085800
