data_ZIJVOF02_clean_PM
_symmetry_space_group_name_H-M	'P1'
_cell_length_a	10.990200
_cell_length_b	10.990200
_cell_length_c	18.094000
_cell_angle_alpha	90.000000
_cell_angle_beta	90.000000
_cell_angle_gamma	90.000000
_symmetry_Int_Tables_number 1

loop_
_symmetry_equiv_pos_as_xyz
'x,y,z'

loop_
_atom_site_label
_atom_site_type_symbol
_atom_site_fract_x
_atom_site_fract_y
_atom_site_fract_z
Cu11	Cu1	0.607760	0.884100	0.143660
Cu21	Cu2	0.399090	0.093250	0.134750
Cu31	Cu3	0.392240	0.115900	0.643660
Cu41	Cu4	0.600910	0.906750	0.634750
Cu51	Cu5	0.115900	0.607760	0.893660
Cu61	Cu6	0.906750	0.399090	0.884750
Cu71	Cu7	0.884100	0.392240	0.393660
Cu81	Cu8	0.093250	0.600910	0.384750
H11	H1	0.818800	0.959600	0.308900
H21	H2	0.838000	0.929000	0.225100
H31	H3	0.904800	0.040800	0.260400
H41	H4	0.541200	0.380400	0.278100
H51	H5	0.513500	0.376100	0.193200
H61	H6	0.427000	0.309600	0.249000
H71	H7	0.450400	0.608800	0.284800
H81	H8	0.488400	0.606600	0.201300
H91	H9	0.565700	0.680800	0.258500
H101	H10	0.082000	0.928500	0.214200
H111	H11	0.139800	0.009600	0.276200
H121	H12	0.157900	0.044100	0.192900
H131	H13	0.181200	0.040400	0.808900
H141	H14	0.162000	0.071000	0.725100
H151	H15	0.095200	0.959200	0.760400
H161	H16	0.458800	0.619600	0.778100
H171	H17	0.486500	0.623900	0.693200
H181	H18	0.573000	0.690400	0.749000
H191	H19	0.549600	0.391200	0.784800
H201	H20	0.511600	0.393400	0.701300
H211	H21	0.434300	0.319200	0.758500
H221	H22	0.918000	0.071500	0.714200
H231	H23	0.860200	0.990400	0.776200
H241	H24	0.842100	0.955900	0.692900
H251	H25	0.040400	0.818800	0.058900
H261	H26	0.071000	0.838000	0.975100
H271	H27	0.959200	0.904800	0.010400
H281	H28	0.619600	0.541200	0.028100
H291	H29	0.623900	0.513500	0.943200
H301	H30	0.690400	0.427000	0.999000
H311	H31	0.391200	0.450400	0.034800
H321	H32	0.393400	0.488400	0.951300
H331	H33	0.319200	0.565700	0.008500
H341	H34	0.071500	0.082000	0.964200
H351	H35	0.990400	0.139800	0.026200
H361	H36	0.955900	0.157900	0.942900
H371	H37	0.959600	0.181200	0.558900
H381	H38	0.929000	0.162000	0.475100
H391	H39	0.040800	0.095200	0.510400
H401	H40	0.380400	0.458800	0.528100
H411	H41	0.376100	0.486500	0.443200
H421	H42	0.309600	0.573000	0.499000
H431	H43	0.608800	0.549600	0.534800
H441	H44	0.606600	0.511600	0.451300
H451	H45	0.680800	0.434300	0.508500
H461	H46	0.928500	0.918000	0.464200
H471	H47	0.009600	0.860200	0.526200
H481	H48	0.044100	0.842100	0.442900
C11	C1	0.831300	0.993500	0.260600
C21	C2	0.509900	0.331200	0.238600
C31	C3	0.727300	0.072200	0.241100
C41	C4	0.585700	0.216800	0.231600
C51	C5	0.701700	0.188900	0.265400
C61	C6	0.763600	0.268400	0.316300
C71	C7	0.485000	0.655500	0.245200
C81	C8	0.150700	0.977900	0.227200
C91	C9	0.406200	0.767500	0.230900
C101	C10	0.260600	0.904600	0.224800
C111	C11	0.286900	0.792400	0.254400
C121	C12	0.217700	0.715400	0.304400
C131	C13	0.168700	0.006500	0.760600
C141	C14	0.490100	0.668800	0.738600
C151	C15	0.272700	0.927800	0.741100
C161	C16	0.414300	0.783200	0.731600
C171	C17	0.298300	0.811100	0.765400
C181	C18	0.236400	0.731600	0.816300
C191	C19	0.515000	0.344500	0.745200
C201	C20	0.849300	0.022100	0.727200
C211	C21	0.593800	0.232500	0.730900
C221	C22	0.739400	0.095400	0.724800
C231	C23	0.713100	0.207600	0.754400
C241	C24	0.782300	0.284600	0.804400
C251	C25	0.006500	0.831300	0.010600
C261	C26	0.668800	0.509900	0.988600
C271	C27	0.927800	0.727300	0.991100
C281	C28	0.783200	0.585700	0.981600
C291	C29	0.811100	0.701700	0.015400
C301	C30	0.731600	0.763600	0.066300
C311	C31	0.344500	0.485000	0.995200
C321	C32	0.022100	0.150700	0.977200
C331	C33	0.232500	0.406200	0.980900
C341	C34	0.095400	0.260600	0.974800
C351	C35	0.207600	0.286900	0.004400
C361	C36	0.284600	0.217700	0.054400
C371	C37	0.993500	0.168700	0.510600
C381	C38	0.331200	0.490100	0.488600
C391	C39	0.072200	0.272700	0.491100
C401	C40	0.216800	0.414300	0.481600
C411	C41	0.188900	0.298300	0.515400
C421	C42	0.268400	0.236400	0.566300
C431	C43	0.655500	0.515000	0.495200
C441	C44	0.977900	0.849300	0.477200
C451	C45	0.767500	0.593800	0.480900
C461	C46	0.904600	0.739400	0.474800
C471	C47	0.792400	0.713100	0.504400
C481	C48	0.715400	0.782300	0.554400
N11	N1	0.634700	0.037900	0.197000
N21	N2	0.545400	0.125300	0.193800
N31	N3	0.453800	0.854000	0.192700
N41	N4	0.360100	0.938000	0.183800
N51	N5	0.365300	0.962100	0.697000
N61	N6	0.454600	0.874700	0.693800
N71	N7	0.546200	0.146000	0.692700
N81	N8	0.639900	0.062000	0.683800
N91	N9	0.962100	0.634700	0.947000
N101	N10	0.874700	0.545400	0.943800
N111	N11	0.146000	0.453800	0.942700
N121	N12	0.062000	0.360100	0.933800
N131	N13	0.037900	0.365300	0.447000
N141	N14	0.125300	0.454600	0.443800
N151	N15	0.854000	0.546200	0.442700
N161	N16	0.938000	0.639900	0.433800
O11	O1	0.867400	0.228800	0.342100
O21	O2	0.731400	0.368700	0.337100
O31	O3	0.249000	0.617900	0.332000
O41	O4	0.109300	0.755700	0.322700
O51	O5	0.132600	0.771200	0.842100
O61	O6	0.268600	0.631300	0.837100
O71	O7	0.751000	0.382100	0.832000
O81	O8	0.890700	0.244300	0.822700
O91	O9	0.771200	0.867400	0.092100
O101	O10	0.631300	0.731400	0.087100
O111	O11	0.382100	0.249000	0.082000
O121	O12	0.244300	0.109300	0.072700
O131	O13	0.228800	0.132600	0.592100
O141	O14	0.368700	0.268600	0.587100
O151	O15	0.617900	0.751000	0.582000
O161	O16	0.755700	0.890700	0.572700
