data_ZIKJIO_clean_PM
_symmetry_space_group_name_H-M	'P1'
_cell_length_a	11.426900
_cell_length_b	11.426900
_cell_length_c	18.873100
_cell_angle_alpha	94.758400
_cell_angle_beta	94.758400
_cell_angle_gamma	96.721900
_symmetry_Int_Tables_number 1

loop_
_symmetry_equiv_pos_as_xyz
'x,y,z'

loop_
_atom_site_label
_atom_site_type_symbol
_atom_site_fract_x
_atom_site_fract_y
_atom_site_fract_z
Cu11	Cu1	0.971810	0.095500	0.472050
Cu21	Cu2	0.904500	0.028190	0.027950
Cu31	Cu3	0.028190	0.904500	0.527950
Cu41	Cu4	0.095500	0.971810	0.972050
H11	H1	0.770600	0.215000	0.641700
H21	H2	0.305800	0.324200	0.530700
H31	H3	0.484400	0.425600	0.585900
H41	H4	0.529900	0.149900	0.701700
H51	H5	0.625100	0.449300	0.697500
H61	H6	0.699400	0.365800	0.651500
H71	H7	0.354100	0.046900	0.645600
H81	H8	0.785000	0.229400	0.858300
H91	H9	0.675800	0.694200	0.969300
H101	H10	0.574400	0.515600	0.914100
H111	H11	0.850100	0.470100	0.798300
H121	H12	0.550700	0.374900	0.802500
H131	H13	0.634200	0.300600	0.848500
H141	H14	0.953100	0.645900	0.854400
H151	H15	0.229400	0.785000	0.358300
H161	H16	0.694200	0.675800	0.469300
H171	H17	0.515600	0.574400	0.414100
H181	H18	0.470100	0.850100	0.298300
H191	H19	0.374900	0.550700	0.302500
H201	H20	0.300600	0.634200	0.348500
H211	H21	0.645900	0.953100	0.354400
H221	H22	0.215000	0.770600	0.141700
H231	H23	0.324200	0.305800	0.030700
H241	H24	0.425600	0.484400	0.085900
H251	H25	0.149900	0.529900	0.201700
H261	H26	0.449300	0.625100	0.197500
H271	H27	0.365800	0.699400	0.151500
H281	H28	0.046900	0.354100	0.145600
H291	H29	0.983600	0.016400	0.750000
H301	H30	0.016400	0.983600	0.250000
C11	C1	0.800620	0.190680	0.685800
C21	C2	0.881490	0.109470	0.686000
C31	C3	0.197270	0.109590	0.549920
C41	C4	0.523890	0.297790	0.649910
C51	C5	0.311350	0.176070	0.583530
C61	C6	0.351040	0.288520	0.565520
C71	C7	0.457340	0.349040	0.598540
C81	C8	0.484610	0.185590	0.666960
C91	C9	0.638090	0.366050	0.685690
C101	C10	0.379580	0.124460	0.633860
C111	C11	0.921700	0.063660	0.616770
C121	C12	0.809320	0.199380	0.814200
C131	C13	0.890530	0.118510	0.814000
C141	C14	0.890410	0.802730	0.950080
C151	C15	0.702210	0.476110	0.850090
C161	C16	0.823930	0.688650	0.916470
C171	C17	0.711480	0.648960	0.934480
C181	C18	0.650960	0.542660	0.901460
C191	C19	0.814410	0.515390	0.833040
C201	C20	0.633950	0.361910	0.814310
C211	C21	0.875540	0.620420	0.866140
C221	C22	0.936340	0.078300	0.883230
C231	C23	0.199380	0.809320	0.314200
C241	C24	0.118510	0.890530	0.314000
C251	C25	0.802730	0.890410	0.450080
C261	C26	0.476110	0.702210	0.350090
C271	C27	0.688650	0.823930	0.416470
C281	C28	0.648960	0.711480	0.434480
C291	C29	0.542660	0.650960	0.401460
C301	C30	0.515390	0.814410	0.333040
C311	C31	0.361910	0.633950	0.314310
C321	C32	0.620420	0.875540	0.366140
C331	C33	0.078300	0.936340	0.383230
C341	C34	0.190680	0.800620	0.185800
C351	C35	0.109470	0.881490	0.186000
C361	C36	0.109590	0.197270	0.049920
C371	C37	0.297790	0.523890	0.149910
C381	C38	0.176070	0.311350	0.083530
C391	C39	0.288520	0.351040	0.065520
C401	C40	0.349040	0.457340	0.098540
C411	C41	0.185590	0.484610	0.166960
C421	C42	0.366050	0.638090	0.185690
C431	C43	0.124460	0.379580	0.133860
C441	C44	0.063660	0.921700	0.116770
C451	C45	0.762160	0.237840	0.750000
C461	C46	0.927970	0.072030	0.750000
C471	C47	0.237840	0.762160	0.250000
C481	C48	0.072030	0.927970	0.250000
N11	N1	0.681400	0.318600	0.750000
N21	N2	0.318600	0.681400	0.250000
O11	O1	0.912310	0.127650	0.565970
O21	O2	0.130850	0.166830	0.512600
O31	O3	0.176320	0.003160	0.561350
O41	O4	0.962850	0.966310	0.614690
O51	O5	0.872350	0.087690	0.934030
O61	O6	0.833170	0.869150	0.987400
O71	O7	0.996840	0.823680	0.938650
O81	O8	0.033690	0.037150	0.885310
O91	O9	0.087690	0.872350	0.434030
O101	O10	0.869150	0.833170	0.487400
O111	O11	0.823680	0.996840	0.438650
O121	O12	0.037150	0.033690	0.385310
O131	O13	0.127650	0.912310	0.065970
O141	O14	0.166830	0.130850	0.012600
O151	O15	0.003160	0.176320	0.061350
O161	O16	0.966310	0.962850	0.114690
