data_ZILFOR_manual_PM
_symmetry_space_group_name_H-M	'P1'
_cell_length_a	26.070000
_cell_length_b	26.070000
_cell_length_c	18.601000
_cell_angle_alpha	90.000000
_cell_angle_beta	90.000000
_cell_angle_gamma	90.000000
_symmetry_Int_Tables_number 1

loop_
_symmetry_equiv_pos_as_xyz
'x,y,z'

loop_
_atom_site_label
_atom_site_type_symbol
_atom_site_fract_x
_atom_site_fract_y
_atom_site_fract_z
C11	C1	0.365900	0.745800	0.572600
C21	C2	0.693300	0.737600	0.441500
C31	C3	0.669000	0.745500	0.510900
C41	C4	0.693600	0.755000	0.570900
H51	H5	0.729200	0.754200	0.571000
C61	C6	0.667000	0.766400	0.635900
C71	C7	0.614700	0.763200	0.634400
H81	H8	0.596500	0.768600	0.676700
C91	C9	0.587700	0.752000	0.571600
C101	C10	0.615600	0.743100	0.508200
H111	H11	0.598800	0.735900	0.465300
C121	C12	0.699000	0.772300	0.703800
C131	C13	0.530300	0.749300	0.572200
C141	C14	0.503000	0.784800	0.613900
H151	H15	0.520300	0.810300	0.639200
C161	C16	0.450400	0.781500	0.616700
H171	H17	0.432800	0.802600	0.648500
C181	C18	0.421900	0.746800	0.572600
C191	C19	0.450600	0.714600	0.532300
H201	H20	0.434200	0.689900	0.504400
C211	C21	0.502500	0.717100	0.531400
H221	H22	0.520000	0.695100	0.500600
C231	C23	0.743000	0.824300	0.316200
C241	C24	0.738500	0.881600	0.282800
C251	C25	0.782400	0.911600	0.289100
H261	H26	0.812400	0.897300	0.307100
C271	C27	0.781300	0.962800	0.268400
H281	H28	0.810600	0.982800	0.272700
C291	C29	0.736300	0.984100	0.241500
C301	C30	0.692500	0.954100	0.235200
H311	H31	0.662400	0.968400	0.217200
C321	C32	0.693500	0.902900	0.255800
H331	H33	0.664200	0.882800	0.251600
C341	C34	0.738300	0.206000	0.952400
C351	C35	0.744600	0.180000	0.884300
C361	C36	0.743700	0.127100	0.883200
H371	H37	0.737700	0.109500	0.926000
C381	C38	0.747100	0.879200	0.820100
C391	C39	0.747100	0.933600	0.819400
C401	C40	0.785200	0.958900	0.778200
H411	H41	0.810200	0.940600	0.753200
C421	C42	0.783700	0.014300	0.776700
H431	H43	0.805700	0.031900	0.746100
C441	C44	0.749800	0.041800	0.819900
C451	C45	0.716700	0.014400	0.863300
H461	H46	0.695200	0.031800	0.894900
C471	C47	0.715400	0.962100	0.860500
H481	H48	0.691100	0.945200	0.888400
C491	C49	0.774500	0.206700	0.690500
C501	C50	0.766300	0.178300	0.757000
C511	C51	0.762600	0.125600	0.759700
H521	H52	0.768000	0.107100	0.717500
C531	C53	0.751400	0.099000	0.820700
C541	C54	0.756400	0.204400	0.821200
H551	H55	0.757900	0.240000	0.821100
C561	C56	0.725400	0.688400	0.843700
C571	C57	0.733900	0.629000	0.851400
C581	C58	0.778100	0.599500	0.845300
H591	H59	0.807000	0.613000	0.822900
C601	C60	0.779100	0.549900	0.872600
H611	H61	0.808700	0.530200	0.868500
C621	C62	0.735900	0.529800	0.906100
C631	C63	0.691700	0.559300	0.912200
H641	H64	0.662700	0.545900	0.934600
C651	C65	0.690700	0.608900	0.884800
H661	H66	0.661100	0.628700	0.888900
N671	N67	0.734600	0.138000	0.155800
C681	C68	0.690700	0.116000	0.185000
H691	H69	0.660000	0.134200	0.185200
C701	C70	0.692700	0.066900	0.213800
H711	H71	0.663300	0.052200	0.233400
C721	C72	0.738500	0.039700	0.213400
C731	C73	0.782400	0.061600	0.184200
H741	H74	0.813100	0.043400	0.184000
C751	C75	0.780500	0.110800	0.155400
H761	H76	0.809800	0.125500	0.135800
N771	N77	0.728100	0.373470	0.983500
C781	C78	0.683690	0.402590	0.977000
H791	H79	0.652500	0.389500	0.993000
C801	C80	0.685840	0.451250	0.946600
H811	H81	0.656100	0.470700	0.942300
C821	C82	0.732400	0.470800	0.922700
C831	C83	0.776800	0.441700	0.929100
H841	H84	0.808000	0.454800	0.913100
C851	C85	0.774690	0.393000	0.959500
H861	H86	0.804400	0.373500	0.963900
O871	O87	0.743390	0.772000	0.703700
O881	O88	0.736510	0.254900	0.950100
O891	O89	0.672240	0.782920	0.758400
O901	O90	0.727140	0.181630	0.007700
O911	O91	0.783740	0.183460	0.635400
O921	O92	0.775100	0.258340	0.692600
O931	O93	0.778400	0.854470	0.782100
O941	O94	0.714500	0.853730	0.855700
O951	O95	0.742170	0.738970	0.442600
O961	O96	0.670310	0.727290	0.385200
O971	O97	0.782400	0.703300	0.802900
O981	O98	0.695300	0.708300	0.849400
O991	O99	0.343710	0.709460	0.536300
O1001	O100	0.341040	0.781990	0.609400
O1011	O101	0.782300	0.806300	0.334400
O1021	O102	0.702700	0.808000	0.292600
Cu1031	Cu103	0.787570	0.778740	0.787280
Cu1041	Cu104	0.700060	0.731220	0.286380
Cu1051	Cu105	0.699080	0.781080	0.856590
Cu1061	Cu106	0.787950	0.732410	0.356100
C1071	C107	0.634100	0.254200	0.072600
C1081	C108	0.306700	0.262400	0.941500
C1091	C109	0.331000	0.254500	0.010900
C1101	C110	0.306400	0.245000	0.070900
H1111	H111	0.270800	0.245800	0.071000
C1121	C112	0.333000	0.233600	0.135900
C1131	C113	0.385300	0.236800	0.134400
H1141	H114	0.403500	0.231400	0.176700
C1151	C115	0.412300	0.248000	0.071600
C1161	C116	0.384400	0.256900	0.008200
H1171	H117	0.401200	0.264100	0.965300
C1181	C118	0.301000	0.227700	0.203800
C1191	C119	0.469700	0.250700	0.072200
C1201	C120	0.497000	0.215200	0.113900
H1211	H121	0.479700	0.189700	0.139200
C1221	C122	0.549600	0.218500	0.116700
H1231	H123	0.567200	0.197400	0.148500
C1241	C124	0.578100	0.253200	0.072600
C1251	C125	0.549400	0.285400	0.032300
H1261	H126	0.565800	0.310100	0.004400
C1271	C127	0.497500	0.282900	0.031400
H1281	H128	0.480000	0.304900	0.000600
C1291	C129	0.257000	0.175700	0.816200
C1301	C130	0.261500	0.118400	0.782800
C1311	C131	0.217600	0.088400	0.789100
H1321	H132	0.187600	0.102700	0.807100
C1331	C133	0.218700	0.037200	0.768400
H1341	H134	0.189400	0.017200	0.772700
C1351	C135	0.263700	0.015900	0.741500
C1361	C136	0.307500	0.045900	0.735200
H1371	H137	0.337600	0.031600	0.717200
C1381	C138	0.306500	0.097100	0.755800
H1391	H139	0.335800	0.117200	0.751600
C1401	C140	0.261700	0.794000	0.452400
C1411	C141	0.255400	0.820000	0.384300
C1421	C142	0.256300	0.872900	0.383200
H1431	H143	0.262300	0.890500	0.426000
C1441	C144	0.252900	0.120800	0.320100
C1451	C145	0.252900	0.066400	0.319400
C1461	C146	0.214800	0.041100	0.278200
H1471	H147	0.189800	0.059400	0.253200
C1481	C148	0.216300	0.985700	0.276700
H1491	H149	0.194300	0.968100	0.246100
C1501	C150	0.250200	0.958200	0.319900
C1511	C151	0.283300	0.985600	0.363300
H1521	H152	0.304800	0.968200	0.394900
C1531	C153	0.284600	0.037900	0.360500
H1541	H154	0.308900	0.054800	0.388400
C1551	C155	0.225500	0.793300	0.190500
C1561	C156	0.233700	0.821700	0.257000
C1571	C157	0.237400	0.874400	0.259700
H1581	H158	0.232000	0.892900	0.217500
C1591	C159	0.248600	0.901000	0.320700
C1601	C160	0.243600	0.795600	0.321200
H1611	H161	0.242100	0.760000	0.321100
C1621	C162	0.274600	0.311600	0.343700
C1631	C163	0.266100	0.371000	0.351400
C1641	C164	0.221900	0.400500	0.345300
H1651	H165	0.193000	0.387000	0.322900
C1661	C166	0.220900	0.450100	0.372600
H1671	H167	0.191300	0.469800	0.368500
C1681	C168	0.264100	0.470200	0.406100
C1691	C169	0.308300	0.440700	0.412200
H1701	H170	0.337300	0.454100	0.434600
C1711	C171	0.309300	0.391100	0.384800
H1721	H172	0.338900	0.371300	0.388900
N1731	N173	0.265400	0.862000	0.655800
C1741	C174	0.309300	0.884000	0.685000
H1751	H175	0.340000	0.865800	0.685200
C1761	C176	0.307300	0.933100	0.713800
H1771	H177	0.336700	0.947800	0.733400
C1781	C178	0.261500	0.960300	0.713400
C1791	C179	0.217600	0.938400	0.684200
H1801	H180	0.186900	0.956600	0.684000
C1811	C181	0.219500	0.889200	0.655400
H1821	H182	0.190200	0.874500	0.635800
N1831	N183	0.271900	0.626530	0.483500
C1841	C184	0.316310	0.597410	0.477000
H1851	H185	0.347500	0.610500	0.493000
C1861	C186	0.314160	0.548750	0.446600
H1871	H187	0.343900	0.529300	0.442300
C1881	C188	0.267600	0.529200	0.422700
C1891	C189	0.223200	0.558300	0.429100
H1901	H190	0.192000	0.545200	0.413100
C1911	C191	0.225310	0.607000	0.459500
H1921	H192	0.195600	0.626500	0.463900
O1931	O193	0.256610	0.228000	0.203700
O1941	O194	0.263490	0.745100	0.450100
O1951	O195	0.327760	0.217080	0.258400
O1961	O196	0.272860	0.818370	0.507700
O1971	O197	0.216260	0.816540	0.135400
O1981	O198	0.224900	0.741660	0.192600
O1991	O199	0.221600	0.145530	0.282100
O2001	O200	0.285500	0.146270	0.355700
O2011	O201	0.257830	0.261030	0.942600
O2021	O202	0.329690	0.272710	0.885200
O2031	O203	0.217600	0.296700	0.302900
O2041	O204	0.304700	0.291700	0.349400
O2051	O205	0.656290	0.290540	0.036300
O2061	O206	0.658960	0.218010	0.109400
O2071	O207	0.217700	0.193700	0.834400
O2081	O208	0.297300	0.192000	0.792600
Cu2091	Cu209	0.212430	0.221260	0.287280
Cu2101	Cu210	0.299940	0.268780	0.786380
Cu2111	Cu211	0.300920	0.218920	0.356590
Cu2121	Cu212	0.212050	0.267590	0.856100
C2131	C213	0.254200	0.365900	0.822600
C2141	C214	0.262400	0.693300	0.691500
C2151	C215	0.254500	0.669000	0.760900
C2161	C216	0.245000	0.693600	0.820900
H2171	H217	0.245800	0.729200	0.821000
C2181	C218	0.233600	0.667000	0.885900
C2191	C219	0.236800	0.614700	0.884400
H2201	H220	0.231400	0.596500	0.926700
C2211	C221	0.248000	0.587700	0.821600
C2221	C222	0.256900	0.615600	0.758200
H2231	H223	0.264100	0.598800	0.715300
C2241	C224	0.227700	0.699000	0.953800
C2251	C225	0.250700	0.530300	0.822200
C2261	C226	0.215200	0.503000	0.863900
H2271	H227	0.189700	0.520300	0.889200
C2281	C228	0.218500	0.450400	0.866700
H2291	H229	0.197400	0.432800	0.898500
C2301	C230	0.253200	0.421900	0.822600
C2311	C231	0.285400	0.450600	0.782300
H2321	H232	0.310100	0.434200	0.754400
C2331	C233	0.282900	0.502500	0.781400
H2341	H234	0.304900	0.520000	0.750600
C2351	C235	0.175700	0.743000	0.566200
C2361	C236	0.118400	0.738500	0.532800
C2371	C237	0.088400	0.782400	0.539100
H2381	H238	0.102700	0.812400	0.557100
C2391	C239	0.037200	0.781300	0.518400
H2401	H240	0.017200	0.810600	0.522700
C2411	C241	0.015900	0.736300	0.491500
C2421	C242	0.045900	0.692500	0.485200
H2431	H243	0.031600	0.662400	0.467200
C2441	C244	0.097100	0.693500	0.505800
H2451	H245	0.117200	0.664200	0.501600
C2461	C246	0.794000	0.738300	0.202400
C2471	C247	0.820000	0.744600	0.134300
C2481	C248	0.872900	0.743700	0.133200
H2491	H249	0.890500	0.737700	0.176000
C2501	C250	0.120800	0.747100	0.070100
C2511	C251	0.066400	0.747100	0.069400
C2521	C252	0.041100	0.785200	0.028200
H2531	H253	0.059400	0.810200	0.003200
C2541	C254	0.985700	0.783700	0.026700
H2551	H255	0.968100	0.805700	0.996100
C2561	C256	0.958200	0.749800	0.069900
C2571	C257	0.985600	0.716700	0.113300
H2581	H258	0.968200	0.695200	0.144900
C2591	C259	0.037900	0.715400	0.110500
H2601	H260	0.054800	0.691100	0.138400
C2611	C261	0.793300	0.774500	0.940500
C2621	C262	0.821700	0.766300	0.007000
C2631	C263	0.874400	0.762600	0.009700
H2641	H264	0.892900	0.768000	0.967500
C2651	C265	0.901000	0.751400	0.070700
C2661	C266	0.795600	0.756400	0.071200
H2671	H267	0.760000	0.757900	0.071100
C2681	C268	0.311600	0.725400	0.093700
C2691	C269	0.371000	0.733900	0.101400
C2701	C270	0.400500	0.778100	0.095300
H2711	H271	0.387000	0.807000	0.072900
C2721	C272	0.450100	0.779100	0.122600
H2731	H273	0.469800	0.808700	0.118500
C2741	C274	0.470200	0.735900	0.156100
C2751	C275	0.440700	0.691700	0.162200
H2761	H276	0.454100	0.662700	0.184600
C2771	C277	0.391100	0.690700	0.134800
H2781	H278	0.371300	0.661100	0.138900
N2791	N279	0.862000	0.734600	0.405800
C2801	C280	0.884000	0.690700	0.435000
H2811	H281	0.865800	0.660000	0.435200
C2821	C282	0.933100	0.692700	0.463800
H2831	H283	0.947800	0.663300	0.483400
C2841	C284	0.960300	0.738500	0.463400
C2851	C285	0.938400	0.782400	0.434200
H2861	H286	0.956600	0.813100	0.434000
C2871	C287	0.889200	0.780500	0.405400
H2881	H288	0.874500	0.809800	0.385800
N2891	N289	0.626530	0.728100	0.233500
C2901	C290	0.597410	0.683690	0.227000
H2911	H291	0.610500	0.652500	0.243000
C2921	C292	0.548750	0.685840	0.196600
H2931	H293	0.529300	0.656100	0.192300
C2941	C294	0.529200	0.732400	0.172700
C2951	C295	0.558300	0.776800	0.179100
H2961	H296	0.545200	0.808000	0.163100
C2971	C297	0.607000	0.774690	0.209500
H2981	H298	0.626500	0.804400	0.213900
O2991	O299	0.228000	0.743390	0.953700
O3001	O300	0.745100	0.736510	0.200100
O3011	O301	0.217080	0.672240	0.008400
O3021	O302	0.818370	0.727140	0.257700
O3031	O303	0.816540	0.783740	0.885400
O3041	O304	0.741660	0.775100	0.942600
O3051	O305	0.145530	0.778400	0.032100
O3061	O306	0.146270	0.714500	0.105700
O3071	O307	0.261030	0.742170	0.692600
O3081	O308	0.272710	0.670310	0.635200
O3091	O309	0.296700	0.782400	0.052900
O3101	O310	0.291700	0.695300	0.099400
O3111	O311	0.290540	0.343710	0.786300
O3121	O312	0.218010	0.341040	0.859400
O3131	O313	0.193700	0.782300	0.584400
O3141	O314	0.192000	0.702700	0.542600
Cu3151	Cu315	0.221260	0.787570	0.037280
Cu3161	Cu316	0.268780	0.700060	0.536380
Cu3171	Cu317	0.218920	0.699080	0.106590
Cu3181	Cu318	0.267590	0.787950	0.606100
C3191	C319	0.745800	0.634100	0.322600
C3201	C320	0.737600	0.306700	0.191500
C3211	C321	0.745500	0.331000	0.260900
C3221	C322	0.755000	0.306400	0.320900
H3231	H323	0.754200	0.270800	0.321000
C3241	C324	0.766400	0.333000	0.385900
C3251	C325	0.763200	0.385300	0.384400
H3261	H326	0.768600	0.403500	0.426700
C3271	C327	0.752000	0.412300	0.321600
C3281	C328	0.743100	0.384400	0.258200
H3291	H329	0.735900	0.401200	0.215300
C3301	C330	0.772300	0.301000	0.453800
C3311	C331	0.749300	0.469700	0.322200
C3321	C332	0.784800	0.497000	0.363900
H3331	H333	0.810300	0.479700	0.389200
C3341	C334	0.781500	0.549600	0.366700
H3351	H335	0.802600	0.567200	0.398500
C3361	C336	0.746800	0.578100	0.322600
C3371	C337	0.714600	0.549400	0.282300
H3381	H338	0.689900	0.565800	0.254400
C3391	C339	0.717100	0.497500	0.281400
H3401	H340	0.695100	0.480000	0.250600
C3411	C341	0.824300	0.257000	0.066200
C3421	C342	0.881600	0.261500	0.032800
C3431	C343	0.911600	0.217600	0.039100
H3441	H344	0.897300	0.187600	0.057100
C3451	C345	0.962800	0.218700	0.018400
H3461	H346	0.982800	0.189400	0.022700
C3471	C347	0.984100	0.263700	0.991500
C3481	C348	0.954100	0.307500	0.985200
H3491	H349	0.968400	0.337600	0.967200
C3501	C350	0.902900	0.306500	0.005800
H3511	H351	0.882800	0.335800	0.001600
C3521	C352	0.206000	0.261700	0.702400
C3531	C353	0.180000	0.255400	0.634300
C3541	C354	0.127100	0.256300	0.633200
H3551	H355	0.109500	0.262300	0.676000
C3561	C356	0.879200	0.252900	0.570100
C3571	C357	0.933600	0.252900	0.569400
C3581	C358	0.958900	0.214800	0.528200
H3591	H359	0.940600	0.189800	0.503200
C3601	C360	0.014300	0.216300	0.526700
H3611	H361	0.031900	0.194300	0.496100
C3621	C362	0.041800	0.250200	0.569900
C3631	C363	0.014400	0.283300	0.613300
H3641	H364	0.031800	0.304800	0.644900
C3651	C365	0.962100	0.284600	0.610500
H3661	H366	0.945200	0.308900	0.638400
C3671	C367	0.206700	0.225500	0.440500
C3681	C368	0.178300	0.233700	0.507000
C3691	C369	0.125600	0.237400	0.509700
H3701	H370	0.107100	0.232000	0.467500
C3711	C371	0.099000	0.248600	0.570700
C3721	C372	0.204400	0.243600	0.571200
H3731	H373	0.240000	0.242100	0.571100
C3741	C374	0.688400	0.274600	0.593700
C3751	C375	0.629000	0.266100	0.601400
C3761	C376	0.599500	0.221900	0.595300
H3771	H377	0.613000	0.193000	0.572900
C3781	C378	0.549900	0.220900	0.622600
H3791	H379	0.530200	0.191300	0.618500
C3801	C380	0.529800	0.264100	0.656100
C3811	C381	0.559300	0.308300	0.662200
H3821	H382	0.545900	0.337300	0.684600
C3831	C383	0.608900	0.309300	0.634800
H3841	H384	0.628700	0.338900	0.638900
N3851	N385	0.138000	0.265400	0.905800
C3861	C386	0.116000	0.309300	0.935000
H3871	H387	0.134200	0.340000	0.935200
C3881	C388	0.066900	0.307300	0.963800
H3891	H389	0.052200	0.336700	0.983400
C3901	C390	0.039700	0.261500	0.963400
C3911	C391	0.061600	0.217600	0.934200
H3921	H392	0.043400	0.186900	0.934000
C3931	C393	0.110800	0.219500	0.905400
H3941	H394	0.125500	0.190200	0.885800
N3951	N395	0.373470	0.271900	0.733500
C3961	C396	0.402590	0.316310	0.727000
H3971	H397	0.389500	0.347500	0.743000
C3981	C398	0.451250	0.314160	0.696600
H3991	H399	0.470700	0.343900	0.692300
C4001	C400	0.470800	0.267600	0.672700
C4011	C401	0.441700	0.223200	0.679100
H4021	H402	0.454800	0.192000	0.663100
C4031	C403	0.393000	0.225310	0.709500
H4041	H404	0.373500	0.195600	0.713900
O4051	O405	0.772000	0.256610	0.453700
O4061	O406	0.254900	0.263490	0.700100
O4071	O407	0.782920	0.327760	0.508400
O4081	O408	0.181630	0.272860	0.757700
O4091	O409	0.183460	0.216260	0.385400
O4101	O410	0.258340	0.224900	0.442600
O4111	O411	0.854470	0.221600	0.532100
O4121	O412	0.853730	0.285500	0.605700
O4131	O413	0.738970	0.257830	0.192600
O4141	O414	0.727290	0.329690	0.135200
O4151	O415	0.703300	0.217600	0.552900
O4161	O416	0.708300	0.304700	0.599400
O4171	O417	0.709460	0.656290	0.286300
O4181	O418	0.781990	0.658960	0.359400
O4191	O419	0.806300	0.217700	0.084400
O4201	O420	0.808000	0.297300	0.042600
Cu4211	Cu421	0.778740	0.212430	0.537280
Cu4221	Cu422	0.731220	0.299940	0.036380
Cu4231	Cu423	0.781080	0.300920	0.606590
Cu4241	Cu424	0.732410	0.212050	0.106100
