data_ZIMLOY_clean_PM
_symmetry_space_group_name_H-M	'P1'
_cell_length_a	30.685000
_cell_length_b	15.583500
_cell_length_c	22.052900
_cell_angle_alpha	90.000000
_cell_angle_beta	132.984000
_cell_angle_gamma	90.000000
_symmetry_Int_Tables_number 1

loop_
_symmetry_equiv_pos_as_xyz
'x,y,z'

loop_
_atom_site_label
_atom_site_type_symbol
_atom_site_fract_x
_atom_site_fract_y
_atom_site_fract_z
W11	W1	0.053030	0.135530	0.449420
W21	W2	0.924190	0.023750	0.290150
W31	W3	0.128070	0.023840	0.409010
W41	W4	0.923420	0.247290	0.290390
W51	W5	0.130240	0.246940	0.408730
Ce11	Ce1	0.889720	0.642270	0.328510
Ce21	Ce2	0.830920	0.626930	0.986380
N11	N1	0.842000	0.503200	0.245300
N21	N2	0.132300	0.766600	0.534300
C11	C1	0.174000	0.823700	0.597700
C21	C2	0.764100	0.378200	0.135100
H11	H1	0.737200	0.336300	0.097300
C31	C3	0.032000	0.711000	0.423100
C41	C4	0.829800	0.492000	0.176000
C51	C5	0.789600	0.426800	0.116900
H21	H2	0.781700	0.418900	0.068400
C61	C6	0.074500	0.783100	0.487300
C71	C7	0.238500	0.798200	0.646400
C81	C8	0.838000	0.462800	0.346800
C91	C9	0.858800	0.556000	0.163200
C101	C10	0.055900	0.854800	0.498600
H31	H3	0.015500	0.864900	0.465800
C111	C11	0.775500	0.386700	0.205600
H41	H4	0.755600	0.354000	0.215600
C121	C12	0.097600	0.913400	0.559400
H51	H5	0.084900	0.963100	0.566700
C131	C13	0.819200	0.448000	0.264000
C141	C14	0.157100	0.898600	0.608500
H61	H6	0.185300	0.938400	0.648100
O11	O1	0.277800	0.844900	0.704700
O21	O2	0.245500	0.733100	0.624500
O31	O3	0.979300	0.720600	0.381900
O41	O4	0.057400	0.649400	0.421800
O51	O5	0.850800	0.547600	0.101000
O61	O6	0.888500	0.615500	0.216200
O71	O7	0.824300	0.405800	0.371900
O81	O8	0.865600	0.531700	0.383200
O91	O9	0.134100	0.256000	0.326100
O101	O10	0.102800	0.054400	0.462800
O111	O11	0.160100	0.138600	0.431100
O121	O12	0.994700	0.051600	0.401000
O131	O13	0.968000	0.934900	0.295400
O141	O14	0.102600	0.216400	0.460000
O151	O15	0.995900	0.223200	0.399400
O161	O16	0.895300	0.141700	0.280600
O171	O17	0.963700	0.066000	0.229000
O181	O18	0.950600	0.136000	0.166800
O191	O19	0.985900	0.141000	0.298000
O201	O20	0.131400	0.015000	0.326000
O211	O21	0.034000	0.338000	0.206300
O221	O22	0.077000	0.341000	0.358500
O231	O23	0.073800	0.928000	0.354700
O241	O24	0.036100	0.205000	0.269000
W61	W6	0.553030	0.635530	0.449420
W71	W7	0.424190	0.523750	0.290150
W81	W8	0.628070	0.523840	0.409010
W91	W9	0.423420	0.747290	0.290390
W101	W10	0.630240	0.746940	0.408730
Ce31	Ce3	0.389720	0.142270	0.328510
Ce41	Ce4	0.330920	0.126930	0.986380
N31	N3	0.342000	0.003200	0.245300
N41	N4	0.632300	0.266600	0.534300
C151	C15	0.674000	0.323700	0.597700
C161	C16	0.264100	0.878200	0.135100
H71	H7	0.237200	0.836300	0.097300
C171	C17	0.532000	0.211000	0.423100
C181	C18	0.329800	0.992000	0.176000
C191	C19	0.289600	0.926800	0.116900
H81	H8	0.281700	0.918900	0.068400
C201	C20	0.574500	0.283100	0.487300
C211	C21	0.738500	0.298200	0.646400
C221	C22	0.338000	0.962800	0.346800
C231	C23	0.358800	0.056000	0.163200
C241	C24	0.555900	0.354800	0.498600
H91	H9	0.515500	0.364900	0.465800
C251	C25	0.275500	0.886700	0.205600
H101	H10	0.255600	0.854000	0.215600
C261	C26	0.597600	0.413400	0.559400
H111	H11	0.584900	0.463100	0.566700
C271	C27	0.319200	0.948000	0.264000
C281	C28	0.657100	0.398600	0.608500
H121	H12	0.685300	0.438400	0.648100
O251	O25	0.777800	0.344900	0.704700
O261	O26	0.745500	0.233100	0.624500
O271	O27	0.479300	0.220600	0.381900
O281	O28	0.557400	0.149400	0.421800
O291	O29	0.350800	0.047600	0.101000
O301	O30	0.388500	0.115500	0.216200
O311	O31	0.324300	0.905800	0.371900
O321	O32	0.365600	0.031700	0.383200
O331	O33	0.634100	0.756000	0.326100
O341	O34	0.602800	0.554400	0.462800
O351	O35	0.660100	0.638600	0.431100
O361	O36	0.494700	0.551600	0.401000
O371	O37	0.468000	0.434900	0.295400
O381	O38	0.602600	0.716400	0.460000
O391	O39	0.495900	0.723200	0.399400
O401	O40	0.395300	0.641700	0.280600
O411	O41	0.463700	0.566000	0.229000
O421	O42	0.450600	0.636000	0.166800
O431	O43	0.485900	0.641000	0.298000
O441	O44	0.631400	0.515000	0.326000
O451	O45	0.534000	0.838000	0.206300
O461	O46	0.577000	0.841000	0.358500
O471	O47	0.573800	0.428000	0.354700
O481	O48	0.536100	0.705000	0.269000
W111	W11	0.946970	0.135530	0.050580
W121	W12	0.075810	0.023750	0.209850
W131	W13	0.871930	0.023840	0.090990
W141	W14	0.076580	0.247290	0.209610
W151	W15	0.869760	0.246940	0.091270
Ce51	Ce5	0.110280	0.642270	0.171490
Ce61	Ce6	0.169080	0.626930	0.513620
N51	N5	0.158000	0.503200	0.254700
N61	N6	0.867700	0.766600	0.965700
C291	C29	0.826000	0.823700	0.902300
C301	C30	0.235900	0.378200	0.364900
H131	H13	0.262800	0.336300	0.402700
C311	C31	0.968000	0.711000	0.076900
C321	C32	0.170200	0.492000	0.324000
C331	C33	0.210400	0.426800	0.383100
H141	H14	0.218300	0.418900	0.431600
C341	C34	0.925500	0.783100	0.012700
C351	C35	0.761500	0.798200	0.853600
C361	C36	0.162000	0.462800	0.153200
C371	C37	0.141200	0.556000	0.336800
C381	C38	0.944100	0.854800	0.001400
H151	H15	0.984500	0.864900	0.034200
C391	C39	0.224500	0.386700	0.294400
H161	H16	0.244400	0.354000	0.284400
C401	C40	0.902400	0.913400	0.940600
H171	H17	0.915100	0.963100	0.933300
C411	C41	0.180800	0.448000	0.236000
C421	C42	0.842900	0.898600	0.891500
H181	H18	0.814700	0.938400	0.851900
O491	O49	0.722200	0.844900	0.795300
O501	O50	0.754500	0.733100	0.875500
O511	O51	0.020700	0.720600	0.118100
O521	O52	0.942600	0.649400	0.078200
O531	O53	0.149200	0.547600	0.399000
O541	O54	0.111500	0.615500	0.283800
O551	O55	0.175700	0.405800	0.128100
O561	O56	0.134400	0.531700	0.116800
O571	O57	0.865900	0.256000	0.173900
O581	O58	0.897200	0.054400	0.037200
O591	O59	0.839900	0.138600	0.068900
O601	O60	0.005300	0.051600	0.099000
O611	O61	0.032000	0.934900	0.204600
O621	O62	0.897400	0.216400	0.040000
O631	O63	0.004100	0.223200	0.100600
O641	O64	0.104700	0.141700	0.219400
O651	O65	0.036300	0.066000	0.271000
O661	O66	0.049400	0.136000	0.333200
O671	O67	0.014100	0.141000	0.202000
O681	O68	0.868600	0.015000	0.174000
O691	O69	0.966000	0.338000	0.293700
O701	O70	0.923000	0.341000	0.141500
O711	O71	0.926200	0.928000	0.145300
O721	O72	0.963900	0.205000	0.231000
W161	W16	0.446970	0.635530	0.050580
W171	W17	0.575810	0.523750	0.209850
W181	W18	0.371930	0.523840	0.090990
W191	W19	0.576580	0.747290	0.209610
W201	W20	0.369760	0.746940	0.091270
Ce71	Ce7	0.610280	0.142270	0.171490
Ce81	Ce8	0.669080	0.126930	0.513620
N71	N7	0.658000	0.003200	0.254700
N81	N8	0.367700	0.266600	0.965700
C431	C43	0.326000	0.323700	0.902300
C441	C44	0.735900	0.878200	0.364900
H191	H19	0.762800	0.836300	0.402700
C451	C45	0.468000	0.211000	0.076900
C461	C46	0.670200	0.992000	0.324000
C471	C47	0.710400	0.926800	0.383100
H201	H20	0.718300	0.918900	0.431600
C481	C48	0.425500	0.283100	0.012700
C491	C49	0.261500	0.298200	0.853600
C501	C50	0.662000	0.962800	0.153200
C511	C51	0.641200	0.056000	0.336800
C521	C52	0.444100	0.354800	0.001400
H211	H21	0.484500	0.364900	0.034200
C531	C53	0.724500	0.886700	0.294400
H221	H22	0.744400	0.854000	0.284400
C541	C54	0.402400	0.413400	0.940600
H231	H23	0.415100	0.463100	0.933300
C551	C55	0.680800	0.948000	0.236000
C561	C56	0.342900	0.398600	0.891500
H241	H24	0.314700	0.438400	0.851900
O731	O73	0.222200	0.344900	0.795300
O741	O74	0.254500	0.233100	0.875500
O751	O75	0.520700	0.220600	0.118100
O761	O76	0.442600	0.149400	0.078200
O771	O77	0.649200	0.047600	0.399000
O781	O78	0.611500	0.115500	0.283800
O791	O79	0.675700	0.905800	0.128100
O801	O80	0.634400	0.031700	0.116800
O811	O81	0.365900	0.756000	0.173900
O821	O82	0.397200	0.554400	0.037200
O831	O83	0.339900	0.638600	0.068900
O841	O84	0.505300	0.551600	0.099000
O851	O85	0.532000	0.434900	0.204600
O861	O86	0.397400	0.716400	0.040000
O871	O87	0.504100	0.723200	0.100600
O881	O88	0.604700	0.641700	0.219400
O891	O89	0.536300	0.566000	0.271000
O901	O90	0.549400	0.636000	0.333200
O911	O91	0.514100	0.641000	0.202000
O921	O92	0.368600	0.515000	0.174000
O931	O93	0.466000	0.838000	0.293700
O941	O94	0.423000	0.841000	0.141500
O951	O95	0.426200	0.428000	0.145300
O961	O96	0.463900	0.705000	0.231000
W211	W21	0.946970	0.864470	0.550580
W221	W22	0.075810	0.976250	0.709850
W231	W23	0.871930	0.976160	0.590990
W241	W24	0.076580	0.752710	0.709610
W251	W25	0.869760	0.753060	0.591270
Ce91	Ce9	0.110280	0.357730	0.671490
Ce101	Ce10	0.169080	0.373070	0.013620
N91	N9	0.158000	0.496800	0.754700
N101	N10	0.867700	0.233400	0.465700
C571	C57	0.826000	0.176300	0.402300
C581	C58	0.235900	0.621800	0.864900
H251	H25	0.262800	0.663700	0.902700
C591	C59	0.968000	0.289000	0.576900
C601	C60	0.170200	0.508000	0.824000
C611	C61	0.210400	0.573200	0.883100
H261	H26	0.218300	0.581100	0.931600
C621	C62	0.925500	0.216900	0.512700
C631	C63	0.761500	0.201800	0.353600
C641	C64	0.162000	0.537200	0.653200
C651	C65	0.141200	0.444000	0.836800
C661	C66	0.944100	0.145200	0.501400
H271	H27	0.984500	0.135100	0.534200
C671	C67	0.224500	0.613300	0.794400
H281	H28	0.244400	0.646000	0.784400
C681	C68	0.902400	0.086600	0.440600
H291	H29	0.915100	0.036900	0.433300
C691	C69	0.180800	0.552000	0.736000
C701	C70	0.842900	0.101400	0.391500
H301	H30	0.814700	0.061600	0.351900
O971	O97	0.722200	0.155100	0.295300
O981	O98	0.754500	0.266900	0.375500
O991	O99	0.020700	0.279400	0.618100
O1001	O100	0.942600	0.350600	0.578200
O1011	O101	0.149200	0.452400	0.899000
O1021	O102	0.111500	0.384500	0.783800
O1031	O103	0.175700	0.594200	0.628100
O1041	O104	0.134400	0.468300	0.616800
O1051	O105	0.865900	0.744000	0.673900
O1061	O106	0.897200	0.945600	0.537200
O1071	O107	0.839900	0.861400	0.568900
O1081	O108	0.005300	0.948400	0.599000
O1091	O109	0.032000	0.065100	0.704600
O1101	O110	0.897400	0.783600	0.540000
O1111	O111	0.004100	0.776800	0.600600
O1121	O112	0.104700	0.858300	0.719400
O1131	O113	0.036300	0.934000	0.771000
O1141	O114	0.049400	0.864000	0.833200
O1151	O115	0.014100	0.859000	0.702000
O1161	O116	0.868600	0.985000	0.674000
O1171	O117	0.966000	0.662000	0.793700
O1181	O118	0.923000	0.659000	0.641500
O1191	O119	0.926200	0.072000	0.645300
O1201	O120	0.963900	0.795000	0.731000
W261	W26	0.446970	0.364470	0.550580
W271	W27	0.575810	0.476250	0.709850
W281	W28	0.371930	0.476160	0.590990
W291	W29	0.576580	0.252710	0.709610
W301	W30	0.369760	0.253060	0.591270
Ce111	Ce11	0.610280	0.857730	0.671490
Ce121	Ce12	0.669080	0.873070	0.013620
N111	N11	0.658000	0.996800	0.754700
N121	N12	0.367700	0.733400	0.465700
C711	C71	0.326000	0.676300	0.402300
C721	C72	0.735900	0.121800	0.864900
H311	H31	0.762800	0.163700	0.902700
C731	C73	0.468000	0.789000	0.576900
C741	C74	0.670200	0.008000	0.824000
C751	C75	0.710400	0.073200	0.883100
H321	H32	0.718300	0.081100	0.931600
C761	C76	0.425500	0.716900	0.512700
C771	C77	0.261500	0.701800	0.353600
C781	C78	0.662000	0.037200	0.653200
C791	C79	0.641200	0.944000	0.836800
C801	C80	0.444100	0.645200	0.501400
H331	H33	0.484500	0.635100	0.534200
C811	C81	0.724500	0.113300	0.794400
H341	H34	0.744400	0.146000	0.784400
C821	C82	0.402400	0.586600	0.440600
H351	H35	0.415100	0.536900	0.433300
C831	C83	0.680800	0.052000	0.736000
C841	C84	0.342900	0.601400	0.391500
H361	H36	0.314700	0.561600	0.351900
O1211	O121	0.222200	0.655100	0.295300
O1221	O122	0.254500	0.766900	0.375500
O1231	O123	0.520700	0.779400	0.618100
O1241	O124	0.442600	0.850600	0.578200
O1251	O125	0.649200	0.952400	0.899000
O1261	O126	0.611500	0.884500	0.783800
O1271	O127	0.675700	0.094200	0.628100
O1281	O128	0.634400	0.968300	0.616800
O1291	O129	0.365900	0.244000	0.673900
O1301	O130	0.397200	0.445600	0.537200
O1311	O131	0.339900	0.361400	0.568900
O1321	O132	0.505300	0.448400	0.599000
O1331	O133	0.532000	0.565100	0.704600
O1341	O134	0.397400	0.283600	0.540000
O1351	O135	0.504100	0.276800	0.600600
O1361	O136	0.604700	0.358300	0.719400
O1371	O137	0.536300	0.434000	0.771000
O1381	O138	0.549400	0.364000	0.833200
O1391	O139	0.514100	0.359000	0.702000
O1401	O140	0.368600	0.485000	0.674000
O1411	O141	0.466000	0.162000	0.793700
O1421	O142	0.423000	0.159000	0.641500
O1431	O143	0.426200	0.572000	0.645300
O1441	O144	0.463900	0.295000	0.731000
W311	W31	0.053030	0.864470	0.949420
W321	W32	0.924190	0.976250	0.790150
W331	W33	0.128070	0.976160	0.909010
W341	W34	0.923420	0.752710	0.790390
W351	W35	0.130240	0.753060	0.908730
Ce131	Ce13	0.889720	0.357730	0.828510
Ce141	Ce14	0.830920	0.373070	0.486380
N131	N13	0.842000	0.496800	0.745300
N141	N14	0.132300	0.233400	0.034300
C851	C85	0.174000	0.176300	0.097700
C861	C86	0.764100	0.621800	0.635100
H371	H37	0.737200	0.663700	0.597300
C871	C87	0.032000	0.289000	0.923100
C881	C88	0.829800	0.508000	0.676000
C891	C89	0.789600	0.573200	0.616900
H381	H38	0.781700	0.581100	0.568400
C901	C90	0.074500	0.216900	0.987300
C911	C91	0.238500	0.201800	0.146400
C921	C92	0.838000	0.537200	0.846800
C931	C93	0.858800	0.444000	0.663200
C941	C94	0.055900	0.145200	0.998600
H391	H39	0.015500	0.135100	0.965800
C951	C95	0.775500	0.613300	0.705600
H401	H40	0.755600	0.646000	0.715600
C961	C96	0.097600	0.086600	0.059400
H411	H41	0.084900	0.036900	0.066700
C971	C97	0.819200	0.552000	0.764000
C981	C98	0.157100	0.101400	0.108500
H421	H42	0.185300	0.061600	0.148100
O1451	O145	0.277800	0.155100	0.204700
O1461	O146	0.245500	0.266900	0.124500
O1471	O147	0.979300	0.279400	0.881900
O1481	O148	0.057400	0.350600	0.921800
O1491	O149	0.850800	0.452400	0.601000
O1501	O150	0.888500	0.384500	0.716200
O1511	O151	0.824300	0.594200	0.871900
O1521	O152	0.865600	0.468300	0.883200
O1531	O153	0.134100	0.744000	0.826100
O1541	O154	0.102800	0.945600	0.962800
O1551	O155	0.160100	0.861400	0.931100
O1561	O156	0.994700	0.948400	0.901000
O1571	O157	0.968000	0.065100	0.795400
O1581	O158	0.102600	0.783600	0.960000
O1591	O159	0.995900	0.776800	0.899400
O1601	O160	0.895300	0.858300	0.780600
O1611	O161	0.963700	0.934000	0.729000
O1621	O162	0.950600	0.864000	0.666800
O1631	O163	0.985900	0.859000	0.798000
O1641	O164	0.131400	0.985000	0.826000
O1651	O165	0.034000	0.662000	0.706300
O1661	O166	0.077000	0.659000	0.858500
O1671	O167	0.073800	0.072000	0.854700
O1681	O168	0.036100	0.795000	0.769000
W361	W36	0.553030	0.364470	0.949420
W371	W37	0.424190	0.476250	0.790150
W381	W38	0.628070	0.476160	0.909010
W391	W39	0.423420	0.252710	0.790390
W401	W40	0.630240	0.253060	0.908730
Ce151	Ce15	0.389720	0.857730	0.828510
Ce161	Ce16	0.330920	0.873070	0.486380
N151	N15	0.342000	0.996800	0.745300
N161	N16	0.632300	0.733400	0.034300
C991	C99	0.674000	0.676300	0.097700
C1001	C100	0.264100	0.121800	0.635100
H431	H43	0.237200	0.163700	0.597300
C1011	C101	0.532000	0.789000	0.923100
C1021	C102	0.329800	0.008000	0.676000
C1031	C103	0.289600	0.073200	0.616900
H441	H44	0.281700	0.081100	0.568400
C1041	C104	0.574500	0.716900	0.987300
C1051	C105	0.738500	0.701800	0.146400
C1061	C106	0.338000	0.037200	0.846800
C1071	C107	0.358800	0.944000	0.663200
C1081	C108	0.555900	0.645200	0.998600
H451	H45	0.515500	0.635100	0.965800
C1091	C109	0.275500	0.113300	0.705600
H461	H46	0.255600	0.146000	0.715600
C1101	C110	0.597600	0.586600	0.059400
H471	H47	0.584900	0.536900	0.066700
C1111	C111	0.319200	0.052000	0.764000
C1121	C112	0.657100	0.601400	0.108500
H481	H48	0.685300	0.561600	0.148100
O1691	O169	0.777800	0.655100	0.204700
O1701	O170	0.745500	0.766900	0.124500
O1711	O171	0.479300	0.779400	0.881900
O1721	O172	0.557400	0.850600	0.921800
O1731	O173	0.350800	0.952400	0.601000
O1741	O174	0.388500	0.884500	0.716200
O1751	O175	0.324300	0.094200	0.871900
O1761	O176	0.365600	0.968300	0.883200
O1771	O177	0.634100	0.244000	0.826100
O1781	O178	0.602800	0.445600	0.962800
O1791	O179	0.660100	0.361400	0.931100
O1801	O180	0.494700	0.448400	0.901000
O1811	O181	0.468000	0.565100	0.795400
O1821	O182	0.602600	0.283600	0.960000
O1831	O183	0.495900	0.276800	0.899400
O1841	O184	0.395300	0.358300	0.780600
O1851	O185	0.463700	0.434000	0.729000
O1861	O186	0.450600	0.364000	0.666800
O1871	O187	0.485900	0.359000	0.798000
O1881	O188	0.631400	0.485000	0.826000
O1891	O189	0.534000	0.162000	0.706300
O1901	O190	0.577000	0.159000	0.858500
O1911	O191	0.573800	0.572000	0.854700
O1921	O192	0.536100	0.295000	0.769000
W411	W41	0.000000	0.910750	0.250000
W421	W42	0.000000	0.358100	0.250000
K11	K1	0.000000	0.636100	0.250000
O1931	O193	0.000000	0.462900	0.250000
O1941	O194	0.000000	0.801000	0.250000
B11	B1	0.000000	0.136000	0.250000
W431	W43	0.500000	0.410750	0.250000
W441	W44	0.500000	0.858100	0.250000
K21	K2	0.500000	0.136100	0.250000
O1951	O195	0.500000	0.962900	0.250000
O1961	O196	0.500000	0.301000	0.250000
B21	B2	0.500000	0.636000	0.250000
W451	W45	0.000000	0.089250	0.750000
W461	W46	0.000000	0.641900	0.750000
K31	K3	0.000000	0.363900	0.750000
O1971	O197	0.000000	0.537100	0.750000
O1981	O198	0.000000	0.199000	0.750000
B31	B3	0.000000	0.864000	0.750000
W471	W47	0.500000	0.589250	0.750000
W481	W48	0.500000	0.141900	0.750000
K41	K4	0.500000	0.863900	0.750000
O1991	O199	0.500000	0.037100	0.750000
O2001	O200	0.500000	0.699000	0.750000
B41	B4	0.500000	0.364000	0.750000
