data_ZIMLEO_clean_PM
_symmetry_space_group_name_H-M	'P1'
_cell_length_a	21.810800
_cell_length_b	21.810800
_cell_length_c	16.095300
_cell_angle_alpha	90.000000
_cell_angle_beta	90.000000
_cell_angle_gamma	90.000000
_symmetry_Int_Tables_number 1

loop_
_symmetry_equiv_pos_as_xyz
'x,y,z'

loop_
_atom_site_label
_atom_site_type_symbol
_atom_site_fract_x
_atom_site_fract_y
_atom_site_fract_z
Dy11	Dy1	0.883840	0.416590	0.123520
O11	O1	0.860900	0.495400	0.023300
O21	O2	0.822900	0.526900	0.902000
O31	O3	0.876200	0.308900	0.110100
O41	O4	0.835500	0.226000	0.052400
N11	N1	0.832200	0.381800	0.996000
C11	C1	0.817800	0.322900	0.988100
C21	C2	0.783100	0.301400	0.922200
H11	H1	0.773300	0.260100	0.917700
C31	C3	0.763500	0.342900	0.863800
H21	H2	0.739200	0.329800	0.819700
C41	C4	0.779700	0.403700	0.870400
H31	H3	0.767800	0.431900	0.830300
C51	C5	0.814200	0.421600	0.938400
C61	C6	0.834000	0.486100	0.954300
C71	C7	0.845000	0.282300	0.054800
Dy21	Dy2	0.383840	0.916590	0.623520
O51	O5	0.360900	0.995400	0.523300
O61	O6	0.322900	0.026900	0.402000
O71	O7	0.376200	0.808900	0.610100
O81	O8	0.335500	0.726000	0.552400
N21	N2	0.332200	0.881800	0.496000
C81	C8	0.317800	0.822900	0.488100
C91	C9	0.283100	0.801400	0.422200
H41	H4	0.273300	0.760100	0.417700
C101	C10	0.263500	0.842900	0.363800
H51	H5	0.239200	0.829800	0.319700
C111	C11	0.279700	0.903700	0.370400
H61	H6	0.267800	0.931900	0.330300
C121	C12	0.314200	0.921600	0.438400
C131	C13	0.334000	0.986100	0.454300
C141	C14	0.345000	0.782300	0.554800
Dy31	Dy3	0.616160	0.583410	0.623520
O91	O9	0.639100	0.504600	0.523300
O101	O10	0.677100	0.473100	0.402000
O111	O11	0.623800	0.691100	0.610100
O121	O12	0.664500	0.774000	0.552400
N31	N3	0.667800	0.618200	0.496000
C151	C15	0.682200	0.677100	0.488100
C161	C16	0.716900	0.698600	0.422200
H71	H7	0.726700	0.739900	0.417700
C171	C17	0.736500	0.657100	0.363800
H81	H8	0.760800	0.670200	0.319700
C181	C18	0.720300	0.596300	0.370400
H91	H9	0.732200	0.568100	0.330300
C191	C19	0.685800	0.578400	0.438400
C201	C20	0.666000	0.513900	0.454300
C211	C21	0.655000	0.717700	0.554800
Dy41	Dy4	0.116160	0.083410	0.123520
O131	O13	0.139100	0.004600	0.023300
O141	O14	0.177100	0.973100	0.902000
O151	O15	0.123800	0.191100	0.110100
O161	O16	0.164500	0.274000	0.052400
N41	N4	0.167800	0.118200	0.996000
C221	C22	0.182200	0.177100	0.988100
C231	C23	0.216900	0.198600	0.922200
H101	H10	0.226700	0.239900	0.917700
C241	C24	0.236500	0.157100	0.863800
H111	H11	0.260800	0.170200	0.819700
C251	C25	0.220300	0.096300	0.870400
H121	H12	0.232200	0.068100	0.830300
C261	C26	0.185800	0.078400	0.938400
C271	C27	0.166000	0.013900	0.954300
C281	C28	0.155000	0.217700	0.054800
Dy51	Dy5	0.333410	0.133840	0.373520
O171	O17	0.254600	0.110900	0.273300
O181	O18	0.223100	0.072900	0.152000
O191	O19	0.441100	0.126200	0.360100
O201	O20	0.524000	0.085500	0.302400
N51	N5	0.368200	0.082200	0.246000
C291	C29	0.427100	0.067800	0.238100
C301	C30	0.448600	0.033100	0.172200
H131	H13	0.489900	0.023300	0.167700
C311	C31	0.407100	0.013500	0.113800
H141	H14	0.420200	0.989200	0.069700
C321	C32	0.346300	0.029700	0.120400
H151	H15	0.318100	0.017800	0.080300
C331	C33	0.328400	0.064200	0.188400
C341	C34	0.263900	0.084000	0.204300
C351	C35	0.467700	0.095000	0.304800
Dy61	Dy6	0.833410	0.633840	0.873520
O211	O21	0.754600	0.610900	0.773300
O221	O22	0.723100	0.572900	0.652000
O231	O23	0.941100	0.626200	0.860100
O241	O24	0.024000	0.585500	0.802400
N61	N6	0.868200	0.582200	0.746000
C361	C36	0.927100	0.567800	0.738100
C371	C37	0.948600	0.533100	0.672200
H161	H16	0.989900	0.523300	0.667700
C381	C38	0.907100	0.513500	0.613800
H171	H17	0.920200	0.489200	0.569700
C391	C39	0.846300	0.529700	0.620400
H181	H18	0.818100	0.517800	0.580300
C401	C40	0.828400	0.564200	0.688400
C411	C41	0.763900	0.584000	0.704300
C421	C42	0.967700	0.595000	0.804800
Dy71	Dy7	0.166590	0.866160	0.873520
O251	O25	0.245400	0.889100	0.773300
O261	O26	0.276900	0.927100	0.652000
O271	O27	0.058900	0.873800	0.860100
O281	O28	0.976000	0.914500	0.802400
N71	N7	0.131800	0.917800	0.746000
C431	C43	0.072900	0.932200	0.738100
C441	C44	0.051400	0.966900	0.672200
H191	H19	0.010100	0.976700	0.667700
C451	C45	0.092900	0.986500	0.613800
H201	H20	0.079800	0.010800	0.569700
C461	C46	0.153700	0.970300	0.620400
H211	H21	0.181900	0.982200	0.580300
C471	C47	0.171600	0.935800	0.688400
C481	C48	0.236100	0.916000	0.704300
C491	C49	0.032300	0.905000	0.804800
Dy81	Dy8	0.666590	0.366160	0.373520
O291	O29	0.745400	0.389100	0.273300
O301	O30	0.776900	0.427100	0.152000
O311	O31	0.558900	0.373800	0.360100
O321	O32	0.476000	0.414500	0.302400
N81	N8	0.631800	0.417800	0.246000
C501	C50	0.572900	0.432200	0.238100
C511	C51	0.551400	0.466900	0.172200
H221	H22	0.510100	0.476700	0.167700
C521	C52	0.592900	0.486500	0.113800
H231	H23	0.579800	0.510800	0.069700
C531	C53	0.653700	0.470300	0.120400
H241	H24	0.681900	0.482200	0.080300
C541	C54	0.671600	0.435800	0.188400
C551	C55	0.736100	0.416000	0.204300
C561	C56	0.532300	0.405000	0.304800
Dy91	Dy9	0.116160	0.583410	0.876480
O331	O33	0.139100	0.504600	0.976700
O341	O34	0.177100	0.473100	0.098000
O351	O35	0.123800	0.691100	0.889900
O361	O36	0.164500	0.774000	0.947600
N91	N9	0.167800	0.618200	0.004000
C571	C57	0.182200	0.677100	0.011900
C581	C58	0.216900	0.698600	0.077800
H251	H25	0.226700	0.739900	0.082300
C591	C59	0.236500	0.657100	0.136200
H261	H26	0.260800	0.670200	0.180300
C601	C60	0.220300	0.596300	0.129600
H271	H27	0.232200	0.568100	0.169700
C611	C61	0.185800	0.578400	0.061600
C621	C62	0.166000	0.513900	0.045700
C631	C63	0.155000	0.717700	0.945200
Dy101	Dy10	0.616160	0.083410	0.376480
O371	O37	0.639100	0.004600	0.476700
O381	O38	0.677100	0.973100	0.598000
O391	O39	0.623800	0.191100	0.389900
O401	O40	0.664500	0.274000	0.447600
N101	N10	0.667800	0.118200	0.504000
C641	C64	0.682200	0.177100	0.511900
C651	C65	0.716900	0.198600	0.577800
H281	H28	0.726700	0.239900	0.582300
C661	C66	0.736500	0.157100	0.636200
H291	H29	0.760800	0.170200	0.680300
C671	C67	0.720300	0.096300	0.629600
H301	H30	0.732200	0.068100	0.669700
C681	C68	0.685800	0.078400	0.561600
C691	C69	0.666000	0.013900	0.545700
C701	C70	0.655000	0.217700	0.445200
Dy111	Dy11	0.383840	0.416590	0.376480
O411	O41	0.360900	0.495400	0.476700
O421	O42	0.322900	0.526900	0.598000
O431	O43	0.376200	0.308900	0.389900
O441	O44	0.335500	0.226000	0.447600
N111	N11	0.332200	0.381800	0.504000
C711	C71	0.317800	0.322900	0.511900
C721	C72	0.283100	0.301400	0.577800
H311	H31	0.273300	0.260100	0.582300
C731	C73	0.263500	0.342900	0.636200
H321	H32	0.239200	0.329800	0.680300
C741	C74	0.279700	0.403700	0.629600
H331	H33	0.267800	0.431900	0.669700
C751	C75	0.314200	0.421600	0.561600
C761	C76	0.334000	0.486100	0.545700
C771	C77	0.345000	0.282300	0.445200
Dy121	Dy12	0.883840	0.916590	0.876480
O451	O45	0.860900	0.995400	0.976700
O461	O46	0.822900	0.026900	0.098000
O471	O47	0.876200	0.808900	0.889900
O481	O48	0.835500	0.726000	0.947600
N121	N12	0.832200	0.881800	0.004000
C781	C78	0.817800	0.822900	0.011900
C791	C79	0.783100	0.801400	0.077800
H341	H34	0.773300	0.760100	0.082300
C801	C80	0.763500	0.842900	0.136200
H351	H35	0.739200	0.829800	0.180300
C811	C81	0.779700	0.903700	0.129600
H361	H36	0.767800	0.931900	0.169700
C821	C82	0.814200	0.921600	0.061600
C831	C83	0.834000	0.986100	0.045700
C841	C84	0.845000	0.782300	0.945200
Dy131	Dy13	0.666590	0.866160	0.626480
O491	O49	0.745400	0.889100	0.726700
O501	O50	0.776900	0.927100	0.848000
O511	O51	0.558900	0.873800	0.639900
O521	O52	0.476000	0.914500	0.697600
N131	N13	0.631800	0.917800	0.754000
C851	C85	0.572900	0.932200	0.761900
C861	C86	0.551400	0.966900	0.827800
H371	H37	0.510100	0.976700	0.832300
C871	C87	0.592900	0.986500	0.886200
H381	H38	0.579800	0.010800	0.930300
C881	C88	0.653700	0.970300	0.879600
H391	H39	0.681900	0.982200	0.919700
C891	C89	0.671600	0.935800	0.811600
C901	C90	0.736100	0.916000	0.795700
C911	C91	0.532300	0.905000	0.695200
Dy141	Dy14	0.166590	0.366160	0.126480
O531	O53	0.245400	0.389100	0.226700
O541	O54	0.276900	0.427100	0.348000
O551	O55	0.058900	0.373800	0.139900
O561	O56	0.976000	0.414500	0.197600
N141	N14	0.131800	0.417800	0.254000
C921	C92	0.072900	0.432200	0.261900
C931	C93	0.051400	0.466900	0.327800
H401	H40	0.010100	0.476700	0.332300
C941	C94	0.092900	0.486500	0.386200
H411	H41	0.079800	0.510800	0.430300
C951	C95	0.153700	0.470300	0.379600
H421	H42	0.181900	0.482200	0.419700
C961	C96	0.171600	0.435800	0.311600
C971	C97	0.236100	0.416000	0.295700
C981	C98	0.032300	0.405000	0.195200
Dy151	Dy15	0.833410	0.133840	0.126480
O571	O57	0.754600	0.110900	0.226700
O581	O58	0.723100	0.072900	0.348000
O591	O59	0.941100	0.126200	0.139900
O601	O60	0.024000	0.085500	0.197600
N151	N15	0.868200	0.082200	0.254000
C991	C99	0.927100	0.067800	0.261900
C1001	C100	0.948600	0.033100	0.327800
H431	H43	0.989900	0.023300	0.332300
C1011	C101	0.907100	0.013500	0.386200
H441	H44	0.920200	0.989200	0.430300
C1021	C102	0.846300	0.029700	0.379600
H451	H45	0.818100	0.017800	0.419700
C1031	C103	0.828400	0.064200	0.311600
C1041	C104	0.763900	0.084000	0.295700
C1051	C105	0.967700	0.095000	0.195200
Dy161	Dy16	0.333410	0.633840	0.626480
O611	O61	0.254600	0.610900	0.726700
O621	O62	0.223100	0.572900	0.848000
O631	O63	0.441100	0.626200	0.639900
O641	O64	0.524000	0.585500	0.697600
N161	N16	0.368200	0.582200	0.754000
C1061	C106	0.427100	0.567800	0.761900
C1071	C107	0.448600	0.533100	0.827800
H461	H46	0.489900	0.523300	0.832300
C1081	C108	0.407100	0.513500	0.886200
H471	H47	0.420200	0.489200	0.930300
C1091	C109	0.346300	0.529700	0.879600
H481	H48	0.318100	0.517800	0.919700
C1101	C110	0.328400	0.564200	0.811600
C1111	C111	0.263900	0.584000	0.795700
C1121	C112	0.467700	0.595000	0.695200
