data_ZIMTAS_clean_PM
_symmetry_space_group_name_H-M	'P1'
_cell_length_a	18.515300
_cell_length_b	18.515300
_cell_length_c	25.057600
_cell_angle_alpha	90.000000
_cell_angle_beta	90.000000
_cell_angle_gamma	90.000000
_symmetry_Int_Tables_number 1

loop_
_symmetry_equiv_pos_as_xyz
'x,y,z'

loop_
_atom_site_label
_atom_site_type_symbol
_atom_site_fract_x
_atom_site_fract_y
_atom_site_fract_z
Cu11	Cu1	0.403340	0.596660	0.500000
Cu21	Cu2	0.596660	0.403340	0.500000
Cu31	Cu3	0.903340	0.903340	0.000000
Cu41	Cu4	0.096660	0.096660	0.000000
Cu51	Cu5	0.500000	0.500000	0.398390
Cu61	Cu6	0.000000	0.000000	0.898390
Cu71	Cu7	0.000000	0.000000	0.101610
Cu81	Cu8	0.500000	0.500000	0.601610
Si11	Si1	0.500000	0.000000	0.250000
Si21	Si2	0.500000	0.000000	0.750000
Si31	Si3	0.000000	0.500000	0.250000
Si41	Si4	0.000000	0.500000	0.750000
H11	H1	0.565200	0.751800	0.294600
H21	H2	0.567600	0.857700	0.245000
H31	H3	0.440300	0.954300	0.353300
H41	H4	0.437500	0.848000	0.402900
H51	H5	0.434800	0.248200	0.294600
H61	H6	0.432400	0.142300	0.245000
H71	H7	0.559700	0.045700	0.353300
H81	H8	0.562500	0.152000	0.402900
H91	H9	0.748200	0.065200	0.794600
H101	H10	0.642300	0.067600	0.745000
H111	H11	0.545700	0.940300	0.853300
H121	H12	0.652000	0.937500	0.902900
H131	H13	0.251800	0.934800	0.794600
H141	H14	0.357700	0.932400	0.745000
H151	H15	0.454300	0.059700	0.853300
H161	H16	0.348000	0.062500	0.902900
H171	H17	0.934800	0.251800	0.205400
H181	H18	0.932400	0.357700	0.255000
H191	H19	0.059700	0.454300	0.146700
H201	H20	0.062500	0.348000	0.097100
H211	H21	0.065200	0.748200	0.205400
H221	H22	0.067600	0.642300	0.255000
H231	H23	0.940300	0.545700	0.146700
H241	H24	0.937500	0.652000	0.097100
H251	H25	0.751800	0.565200	0.705400
H261	H26	0.857700	0.567600	0.755000
H271	H27	0.954300	0.440300	0.646700
H281	H28	0.848000	0.437500	0.597100
H291	H29	0.248200	0.434800	0.705400
H301	H30	0.142300	0.432400	0.755000
H311	H31	0.045700	0.559700	0.646700
H321	H32	0.152000	0.562500	0.597100
H331	H33	0.434800	0.248200	0.705400
H341	H34	0.432400	0.142300	0.755000
H351	H35	0.559700	0.045700	0.646700
H361	H36	0.562500	0.152000	0.597100
H371	H37	0.565200	0.751800	0.705400
H381	H38	0.567600	0.857700	0.755000
H391	H39	0.440300	0.954300	0.646700
H401	H40	0.437500	0.848000	0.597100
H411	H41	0.251800	0.934800	0.205400
H421	H42	0.357700	0.932400	0.255000
H431	H43	0.454300	0.059700	0.146700
H441	H44	0.348000	0.062500	0.097100
H451	H45	0.748200	0.065200	0.205400
H461	H46	0.642300	0.067600	0.255000
H471	H47	0.545700	0.940300	0.146700
H481	H48	0.652000	0.937500	0.097100
H491	H49	0.065200	0.748200	0.794600
H501	H50	0.067600	0.642300	0.745000
H511	H51	0.940300	0.545700	0.853300
H521	H52	0.937500	0.652000	0.902900
H531	H53	0.934800	0.251800	0.794600
H541	H54	0.932400	0.357700	0.745000
H551	H55	0.059700	0.454300	0.853300
H561	H56	0.062500	0.348000	0.902900
H571	H57	0.248200	0.434800	0.294600
H581	H58	0.142300	0.432400	0.245000
H591	H59	0.045700	0.559700	0.353300
H601	H60	0.152000	0.562500	0.402900
H611	H61	0.751800	0.565200	0.294600
H621	H62	0.857700	0.567600	0.245000
H631	H63	0.954300	0.440300	0.353300
H641	H64	0.848000	0.437500	0.402900
C11	C1	0.493540	0.721170	0.383120
C21	C2	0.499950	0.789360	0.353320
C31	C3	0.539070	0.792840	0.306630
C41	C4	0.540390	0.856260	0.277100
C51	C5	0.503220	0.917430	0.293040
C61	C6	0.465590	0.913040	0.340600
C71	C7	0.463940	0.849540	0.370380
C81	C8	0.506460	0.278830	0.383120
C91	C9	0.500050	0.210640	0.353320
C101	C10	0.460930	0.207160	0.306630
C111	C11	0.459610	0.143740	0.277100
C121	C12	0.496780	0.082570	0.293040
C131	C13	0.534410	0.086960	0.340600
C141	C14	0.536060	0.150460	0.370380
C151	C15	0.778830	0.993540	0.883120
C161	C16	0.710640	0.999950	0.853320
C171	C17	0.707160	0.039070	0.806630
C181	C18	0.643740	0.040390	0.777100
C191	C19	0.582570	0.003220	0.793040
C201	C20	0.586960	0.965590	0.840600
C211	C21	0.650460	0.963940	0.870380
C221	C22	0.221170	0.006460	0.883120
C231	C23	0.289360	0.000050	0.853320
C241	C24	0.292840	0.960930	0.806630
C251	C25	0.356260	0.959610	0.777100
C261	C26	0.417430	0.996780	0.793040
C271	C27	0.413040	0.034410	0.840600
C281	C28	0.349540	0.036060	0.870380
C291	C29	0.006460	0.221170	0.116880
C301	C30	0.000050	0.289360	0.146680
C311	C31	0.960930	0.292840	0.193370
C321	C32	0.959610	0.356260	0.222900
C331	C33	0.996780	0.417430	0.206960
C341	C34	0.034410	0.413040	0.159400
C351	C35	0.036060	0.349540	0.129620
C361	C36	0.993540	0.778830	0.116880
C371	C37	0.999950	0.710640	0.146680
C381	C38	0.039070	0.707160	0.193370
C391	C39	0.040390	0.643740	0.222900
C401	C40	0.003220	0.582570	0.206960
C411	C41	0.965590	0.586960	0.159400
C421	C42	0.963940	0.650460	0.129620
C431	C43	0.721170	0.493540	0.616880
C441	C44	0.789360	0.499950	0.646680
C451	C45	0.792840	0.539070	0.693370
C461	C46	0.856260	0.540390	0.722900
C471	C47	0.917430	0.503220	0.706960
C481	C48	0.913040	0.465590	0.659400
C491	C49	0.849540	0.463940	0.629620
C501	C50	0.278830	0.506460	0.616880
C511	C51	0.210640	0.500050	0.646680
C521	C52	0.207160	0.460930	0.693370
C531	C53	0.143740	0.459610	0.722900
C541	C54	0.082570	0.496780	0.706960
C551	C55	0.086960	0.534410	0.659400
C561	C56	0.150460	0.536060	0.629620
C571	C57	0.506460	0.278830	0.616880
C581	C58	0.500050	0.210640	0.646680
C591	C59	0.460930	0.207160	0.693370
C601	C60	0.459610	0.143740	0.722900
C611	C61	0.496780	0.082570	0.706960
C621	C62	0.534410	0.086960	0.659400
C631	C63	0.536060	0.150460	0.629620
C641	C64	0.493540	0.721170	0.616880
C651	C65	0.499950	0.789360	0.646680
C661	C66	0.539070	0.792840	0.693370
C671	C67	0.540390	0.856260	0.722900
C681	C68	0.503220	0.917430	0.706960
C691	C69	0.465590	0.913040	0.659400
C701	C70	0.463940	0.849540	0.629620
C711	C71	0.221170	0.006460	0.116880
C721	C72	0.289360	0.000050	0.146680
C731	C73	0.292840	0.960930	0.193370
C741	C74	0.356260	0.959610	0.222900
C751	C75	0.417430	0.996780	0.206960
C761	C76	0.413040	0.034410	0.159400
C771	C77	0.349540	0.036060	0.129620
C781	C78	0.778830	0.993540	0.116880
C791	C79	0.710640	0.999950	0.146680
C801	C80	0.707160	0.039070	0.193370
C811	C81	0.643740	0.040390	0.222900
C821	C82	0.582570	0.003220	0.206960
C831	C83	0.586960	0.965590	0.159400
C841	C84	0.650460	0.963940	0.129620
C851	C85	0.993540	0.778830	0.883120
C861	C86	0.999950	0.710640	0.853320
C871	C87	0.039070	0.707160	0.806630
C881	C88	0.040390	0.643740	0.777100
C891	C89	0.003220	0.582570	0.793040
C901	C90	0.965590	0.586960	0.840600
C911	C91	0.963940	0.650460	0.870380
C921	C92	0.006460	0.221170	0.883120
C931	C93	0.000050	0.289360	0.853320
C941	C94	0.960930	0.292840	0.806630
C951	C95	0.959610	0.356260	0.777100
C961	C96	0.996780	0.417430	0.793040
C971	C97	0.034410	0.413040	0.840600
C981	C98	0.036060	0.349540	0.870380
C991	C99	0.278830	0.506460	0.383120
C1001	C100	0.210640	0.500050	0.353320
C1011	C101	0.207160	0.460930	0.306630
C1021	C102	0.143740	0.459610	0.277100
C1031	C103	0.082570	0.496780	0.293040
C1041	C104	0.086960	0.534410	0.340600
C1051	C105	0.150460	0.536060	0.370380
C1061	C106	0.721170	0.493540	0.383120
C1071	C107	0.789360	0.499950	0.353320
C1081	C108	0.792840	0.539070	0.306630
C1091	C109	0.856260	0.540390	0.277100
C1101	C110	0.917430	0.503220	0.293040
C1111	C111	0.913040	0.465590	0.340600
C1121	C112	0.849540	0.463940	0.370380
N11	N1	0.459920	0.645820	0.441040
N21	N2	0.496000	0.610680	0.402800
N31	N3	0.517960	0.656950	0.365920
N41	N4	0.457740	0.715750	0.429400
N51	N5	0.540080	0.354180	0.441040
N61	N6	0.504000	0.389320	0.402800
N71	N7	0.482040	0.343050	0.365920
N81	N8	0.542260	0.284250	0.429400
N91	N9	0.854180	0.959920	0.941040
N101	N10	0.889320	0.996000	0.902800
N111	N11	0.843050	0.017960	0.865920
N121	N12	0.784250	0.957740	0.929400
N131	N13	0.145820	0.040080	0.941040
N141	N14	0.110680	0.004000	0.902800
N151	N15	0.156950	0.982040	0.865920
N161	N16	0.215750	0.042260	0.929400
N171	N17	0.040080	0.145820	0.058960
N181	N18	0.004000	0.110680	0.097200
N191	N19	0.982040	0.156950	0.134080
N201	N20	0.042260	0.215750	0.070600
N211	N21	0.959920	0.854180	0.058960
N221	N22	0.996000	0.889320	0.097200
N231	N23	0.017960	0.843050	0.134080
N241	N24	0.957740	0.784250	0.070600
N251	N25	0.645820	0.459920	0.558960
N261	N26	0.610680	0.496000	0.597200
N271	N27	0.656950	0.517960	0.634080
N281	N28	0.715750	0.457740	0.570600
N291	N29	0.354180	0.540080	0.558960
N301	N30	0.389320	0.504000	0.597200
N311	N31	0.343050	0.482040	0.634080
N321	N32	0.284250	0.542260	0.570600
N331	N33	0.540080	0.354180	0.558960
N341	N34	0.504000	0.389320	0.597200
N351	N35	0.482040	0.343050	0.634080
N361	N36	0.542260	0.284250	0.570600
N371	N37	0.459920	0.645820	0.558960
N381	N38	0.496000	0.610680	0.597200
N391	N39	0.517960	0.656950	0.634080
N401	N40	0.457740	0.715750	0.570600
N411	N41	0.145820	0.040080	0.058960
N421	N42	0.110680	0.004000	0.097200
N431	N43	0.156950	0.982040	0.134080
N441	N44	0.215750	0.042260	0.070600
N451	N45	0.854180	0.959920	0.058960
N461	N46	0.889320	0.996000	0.097200
N471	N47	0.843050	0.017960	0.134080
N481	N48	0.784250	0.957740	0.070600
N491	N49	0.959920	0.854180	0.941040
N501	N50	0.996000	0.889320	0.902800
N511	N51	0.017960	0.843050	0.865920
N521	N52	0.957740	0.784250	0.929400
N531	N53	0.040080	0.145820	0.941040
N541	N54	0.004000	0.110680	0.902800
N551	N55	0.982040	0.156950	0.865920
N561	N56	0.042260	0.215750	0.929400
N571	N57	0.354180	0.540080	0.441040
N581	N58	0.389320	0.504000	0.402800
N591	N59	0.343050	0.482040	0.365920
N601	N60	0.284250	0.542260	0.429400
N611	N61	0.645820	0.459920	0.441040
N621	N62	0.610680	0.496000	0.402800
N631	N63	0.656950	0.517960	0.365920
N641	N64	0.715750	0.457740	0.429400
Cl11	Cl1	0.500000	0.500000	0.500000
Cl21	Cl2	0.000000	0.000000	0.000000
