data_ZIQJEQ_clean_PM
_symmetry_space_group_name_H-M	'P1'
_cell_length_a	35.256300
_cell_length_b	15.462500
_cell_length_c	25.051000
_cell_angle_alpha	90.000000
_cell_angle_beta	122.794000
_cell_angle_gamma	90.000000
_symmetry_Int_Tables_number 1

loop_
_symmetry_equiv_pos_as_xyz
'x,y,z'

loop_
_atom_site_label
_atom_site_type_symbol
_atom_site_fract_x
_atom_site_fract_y
_atom_site_fract_z
N11	N1	0.342700	0.968200	0.353300
C11	C1	0.334200	0.941700	0.396700
H11	H1	0.310600	0.960500	0.400300
N21	N2	0.365600	0.883500	0.434100
N31	N3	0.393500	0.874000	0.413800
C21	C2	0.379300	0.926300	0.363800
H21	H2	0.392600	0.932500	0.340600
C31	C3	0.428400	0.810800	0.434800
H31	H3	0.441500	0.798800	0.479400
H41	H4	0.452000	0.833500	0.429900
C41	C4	0.410300	0.729400	0.397700
C51	C5	0.399600	0.723000	0.336100
H51	H5	0.400900	0.773400	0.316600
C61	C6	0.406000	0.654100	0.423300
H61	H6	0.413400	0.654200	0.465000
N41	N4	0.254400	0.481700	0.242100
C71	C7	0.268200	0.404200	0.265900
H71	H7	0.250700	0.361200	0.268200
N51	N5	0.310900	0.397900	0.285900
N61	N6	0.323600	0.471500	0.274500
C81	C8	0.288600	0.523300	0.247500
H81	H8	0.288200	0.579700	0.234300
C91	C9	0.368300	0.491500	0.291000
H91	H9	0.368700	0.497800	0.252800
H101	H10	0.388700	0.445000	0.316200
C101	C10	0.383100	0.573500	0.328000
C111	C11	0.387300	0.649100	0.302500
H111	H11	0.381600	0.649000	0.261600
C121	C12	0.390800	0.578000	0.388200
H121	H12	0.385700	0.529400	0.405400
N71	N7	0.263800	0.124000	0.201900
C131	C13	0.265400	0.208200	0.207900
H131	H13	0.282700	0.238900	0.245600
N81	N8	0.238600	0.241600	0.151400
N91	N9	0.220400	0.178100	0.110700
C141	C14	0.235900	0.105400	0.141900
H141	H14	0.228500	0.050200	0.124400
C151	C15	0.194000	0.189000	0.043200
H151	H15	0.169800	0.230100	0.032100
H161	H16	0.180400	0.134600	0.023100
C161	C16	0.220700	0.221400	0.018500
C171	C17	0.250000	0.166400	0.016200
H171	H17	0.250600	0.108700	0.027200
C181	C18	0.220300	0.305700	0.002500
H181	H18	0.200800	0.344900	0.003800
N101	N10	0.355400	0.092100	0.277100
C191	C19	0.381200	0.160900	0.312100
H191	H19	0.384200	0.181900	0.349000
N111	N11	0.401800	0.193500	0.283400
N121	N12	0.388800	0.144900	0.230800
C201	C20	0.360100	0.082300	0.226900
H201	H20	0.346200	0.040200	0.195500
C211	C21	0.403900	0.142000	0.188000
H211	H21	0.386500	0.182600	0.153900
H221	H22	0.397900	0.084300	0.169400
C221	C22	0.451900	0.161000	0.218000
C231	C23	0.476600	0.087000	0.235000
H231	H23	0.461800	0.034100	0.228100
C241	C24	0.476500	0.235000	0.234000
H241	H24	0.461400	0.287900	0.222400
Cu11	Cu1	0.303330	0.043200	0.276510
N131	N13	0.842700	0.468200	0.353300
C251	C25	0.834200	0.441700	0.396700
H251	H25	0.810600	0.460500	0.400300
N141	N14	0.865600	0.383500	0.434100
N151	N15	0.893500	0.374000	0.413800
C261	C26	0.879300	0.426300	0.363800
H261	H26	0.892600	0.432500	0.340600
C271	C27	0.928400	0.310800	0.434800
H271	H27	0.941500	0.298800	0.479400
H281	H28	0.952000	0.333500	0.429900
C281	C28	0.910300	0.229400	0.397700
C291	C29	0.899600	0.223000	0.336100
H291	H29	0.900900	0.273400	0.316600
C301	C30	0.906000	0.154100	0.423300
H301	H30	0.913400	0.154200	0.465000
N161	N16	0.754400	0.981700	0.242100
C311	C31	0.768200	0.904200	0.265900
H311	H31	0.750700	0.861200	0.268200
N171	N17	0.810900	0.897900	0.285900
N181	N18	0.823600	0.971500	0.274500
C321	C32	0.788600	0.023300	0.247500
H321	H32	0.788200	0.079700	0.234300
C331	C33	0.868300	0.991500	0.291000
H331	H33	0.868700	0.997800	0.252800
H341	H34	0.888700	0.945000	0.316200
C341	C34	0.883100	0.073500	0.328000
C351	C35	0.887300	0.149100	0.302500
H351	H35	0.881600	0.149000	0.261600
C361	C36	0.890800	0.078000	0.388200
H361	H36	0.885700	0.029400	0.405400
N191	N19	0.763800	0.624000	0.201900
C371	C37	0.765400	0.708200	0.207900
H371	H37	0.782700	0.738900	0.245600
N201	N20	0.738600	0.741600	0.151400
N211	N21	0.720400	0.678100	0.110700
C381	C38	0.735900	0.605400	0.141900
H381	H38	0.728500	0.550200	0.124400
C391	C39	0.694000	0.689000	0.043200
H391	H39	0.669800	0.730100	0.032100
H401	H40	0.680400	0.634600	0.023100
C401	C40	0.720700	0.721400	0.018500
C411	C41	0.750000	0.666400	0.016200
H411	H41	0.750600	0.608700	0.027200
C421	C42	0.720300	0.805700	0.002500
H421	H42	0.700800	0.844900	0.003800
N221	N22	0.855400	0.592100	0.277100
C431	C43	0.881200	0.660900	0.312100
H431	H43	0.884200	0.681900	0.349000
N231	N23	0.901800	0.693500	0.283400
N241	N24	0.888800	0.644900	0.230800
C441	C44	0.860100	0.582300	0.226900
H441	H44	0.846200	0.540200	0.195500
C451	C45	0.903900	0.642000	0.188000
H451	H45	0.886500	0.682600	0.153900
H461	H46	0.897900	0.584300	0.169400
C461	C46	0.951900	0.661000	0.218000
C471	C47	0.976600	0.587000	0.235000
H471	H47	0.961800	0.534100	0.228100
C481	C48	0.976500	0.735000	0.234000
H481	H48	0.961400	0.787900	0.222400
Cu21	Cu2	0.803330	0.543200	0.276510
N251	N25	0.657300	0.968200	0.146700
C491	C49	0.665800	0.941700	0.103300
H491	H49	0.689400	0.960500	0.099700
N261	N26	0.634400	0.883500	0.065900
N271	N27	0.606500	0.874000	0.086200
C501	C50	0.620700	0.926300	0.136200
H501	H50	0.607400	0.932500	0.159400
C511	C51	0.571600	0.810800	0.065200
H511	H51	0.558500	0.798800	0.020600
H521	H52	0.548000	0.833500	0.070100
C521	C52	0.589700	0.729400	0.102300
C531	C53	0.600400	0.723000	0.163900
H531	H53	0.599100	0.773400	0.183400
C541	C54	0.594000	0.654100	0.076700
H541	H54	0.586600	0.654200	0.035000
N281	N28	0.745600	0.481700	0.257900
C551	C55	0.731800	0.404200	0.234100
H551	H55	0.749300	0.361200	0.231800
N291	N29	0.689100	0.397900	0.214100
N301	N30	0.676400	0.471500	0.225500
C561	C56	0.711400	0.523300	0.252500
H561	H56	0.711800	0.579700	0.265700
C571	C57	0.631700	0.491500	0.209000
H571	H57	0.631300	0.497800	0.247200
H581	H58	0.611300	0.445000	0.183800
C581	C58	0.616900	0.573500	0.172000
C591	C59	0.612700	0.649100	0.197500
H591	H59	0.618400	0.649000	0.238400
C601	C60	0.609200	0.578000	0.111800
H601	H60	0.614300	0.529400	0.094600
N311	N31	0.736200	0.124000	0.298100
C611	C61	0.734600	0.208200	0.292100
H611	H61	0.717300	0.238900	0.254400
N321	N32	0.761400	0.241600	0.348600
N331	N33	0.779600	0.178100	0.389300
C621	C62	0.764100	0.105400	0.358100
H621	H62	0.771500	0.050200	0.375600
C631	C63	0.806000	0.189000	0.456800
H631	H63	0.830200	0.230100	0.467900
H641	H64	0.819600	0.134600	0.476900
C641	C64	0.779300	0.221400	0.481500
C651	C65	0.750000	0.166400	0.483800
H651	H65	0.749400	0.108700	0.472800
C661	C66	0.779700	0.305700	0.497500
H661	H66	0.799200	0.344900	0.496200
N341	N34	0.644600	0.092100	0.222900
C671	C67	0.618800	0.160900	0.187900
H671	H67	0.615800	0.181900	0.151000
N351	N35	0.598200	0.193500	0.216600
N361	N36	0.611200	0.144900	0.269200
C681	C68	0.639900	0.082300	0.273100
H681	H68	0.653800	0.040200	0.304500
C691	C69	0.596100	0.142000	0.312000
H691	H69	0.613500	0.182600	0.346100
H701	H70	0.602100	0.084300	0.330600
C701	C70	0.548100	0.161000	0.282000
C711	C71	0.523400	0.087000	0.265000
H711	H71	0.538200	0.034100	0.271900
C721	C72	0.523500	0.235000	0.266000
H721	H72	0.538600	0.287900	0.277600
Cu31	Cu3	0.696670	0.043200	0.223490
N371	N37	0.157300	0.468200	0.146700
C731	C73	0.165800	0.441700	0.103300
H731	H73	0.189400	0.460500	0.099700
N381	N38	0.134400	0.383500	0.065900
N391	N39	0.106500	0.374000	0.086200
C741	C74	0.120700	0.426300	0.136200
H741	H74	0.107400	0.432500	0.159400
C751	C75	0.071600	0.310800	0.065200
H751	H75	0.058500	0.298800	0.020600
H761	H76	0.048000	0.333500	0.070100
C761	C76	0.089700	0.229400	0.102300
C771	C77	0.100400	0.223000	0.163900
H771	H77	0.099100	0.273400	0.183400
C781	C78	0.094000	0.154100	0.076700
H781	H78	0.086600	0.154200	0.035000
N401	N40	0.245600	0.981700	0.257900
C791	C79	0.231800	0.904200	0.234100
H791	H79	0.249300	0.861200	0.231800
N411	N41	0.189100	0.897900	0.214100
N421	N42	0.176400	0.971500	0.225500
C801	C80	0.211400	0.023300	0.252500
H801	H80	0.211800	0.079700	0.265700
C811	C81	0.131700	0.991500	0.209000
H811	H81	0.131300	0.997800	0.247200
H821	H82	0.111300	0.945000	0.183800
C821	C82	0.116900	0.073500	0.172000
C831	C83	0.112700	0.149100	0.197500
H831	H83	0.118400	0.149000	0.238400
C841	C84	0.109200	0.078000	0.111800
H841	H84	0.114300	0.029400	0.094600
N431	N43	0.236200	0.624000	0.298100
C851	C85	0.234600	0.708200	0.292100
H851	H85	0.217300	0.738900	0.254400
N441	N44	0.261400	0.741600	0.348600
N451	N45	0.279600	0.678100	0.389300
C861	C86	0.264100	0.605400	0.358100
H861	H86	0.271500	0.550200	0.375600
C871	C87	0.306000	0.689000	0.456800
H871	H87	0.330200	0.730100	0.467900
H881	H88	0.319600	0.634600	0.476900
C881	C88	0.279300	0.721400	0.481500
C891	C89	0.250000	0.666400	0.483800
H891	H89	0.249400	0.608700	0.472800
C901	C90	0.279700	0.805700	0.497500
H901	H90	0.299200	0.844900	0.496200
N461	N46	0.144600	0.592100	0.222900
C911	C91	0.118800	0.660900	0.187900
H911	H91	0.115800	0.681900	0.151000
N471	N47	0.098200	0.693500	0.216600
N481	N48	0.111200	0.644900	0.269200
C921	C92	0.139900	0.582300	0.273100
H921	H92	0.153800	0.540200	0.304500
C931	C93	0.096100	0.642000	0.312000
H931	H93	0.113500	0.682600	0.346100
H941	H94	0.102100	0.584300	0.330600
C941	C94	0.048100	0.661000	0.282000
C951	C95	0.023400	0.587000	0.265000
H951	H95	0.038200	0.534100	0.271900
C961	C96	0.023500	0.735000	0.266000
H961	H96	0.038600	0.787900	0.277600
Cu41	Cu4	0.196670	0.543200	0.223490
N491	N49	0.657300	0.031800	0.646700
C971	C97	0.665800	0.058300	0.603300
H971	H97	0.689400	0.039500	0.599700
N501	N50	0.634400	0.116500	0.565900
N511	N51	0.606500	0.126000	0.586200
C981	C98	0.620700	0.073700	0.636200
H981	H98	0.607400	0.067500	0.659400
C991	C99	0.571600	0.189200	0.565200
H991	H99	0.558500	0.201200	0.520600
H1001	H100	0.548000	0.166500	0.570100
C1001	C100	0.589700	0.270600	0.602300
C1011	C101	0.600400	0.277000	0.663900
H1011	H101	0.599100	0.226600	0.683400
C1021	C102	0.594000	0.345900	0.576700
H1021	H102	0.586600	0.345800	0.535000
N521	N52	0.745600	0.518300	0.757900
C1031	C103	0.731800	0.595800	0.734100
H1031	H103	0.749300	0.638800	0.731800
N531	N53	0.689100	0.602100	0.714100
N541	N54	0.676400	0.528500	0.725500
C1041	C104	0.711400	0.476700	0.752500
H1041	H104	0.711800	0.420300	0.765700
C1051	C105	0.631700	0.508500	0.709000
H1051	H105	0.631300	0.502200	0.747200
H1061	H106	0.611300	0.555000	0.683800
C1061	C106	0.616900	0.426500	0.672000
C1071	C107	0.612700	0.350900	0.697500
H1071	H107	0.618400	0.351000	0.738400
C1081	C108	0.609200	0.422000	0.611800
H1081	H108	0.614300	0.470600	0.594600
N551	N55	0.736200	0.876000	0.798100
C1091	C109	0.734600	0.791800	0.792100
H1091	H109	0.717300	0.761100	0.754400
N561	N56	0.761400	0.758400	0.848600
N571	N57	0.779600	0.821900	0.889300
C1101	C110	0.764100	0.894600	0.858100
H1101	H110	0.771500	0.949800	0.875600
C1111	C111	0.806000	0.811000	0.956800
H1111	H111	0.830200	0.769900	0.967900
H1121	H112	0.819600	0.865400	0.976900
C1121	C112	0.779300	0.778600	0.981500
C1131	C113	0.750000	0.833600	0.983800
H1131	H113	0.749400	0.891300	0.972800
C1141	C114	0.779700	0.694300	0.997500
H1141	H114	0.799200	0.655100	0.996200
N581	N58	0.644600	0.907900	0.722900
C1151	C115	0.618800	0.839100	0.687900
H1151	H115	0.615800	0.818100	0.651000
N591	N59	0.598200	0.806500	0.716600
N601	N60	0.611200	0.855100	0.769200
C1161	C116	0.639900	0.917700	0.773100
H1161	H116	0.653800	0.959800	0.804500
C1171	C117	0.596100	0.858000	0.812000
H1171	H117	0.613500	0.817400	0.846100
H1181	H118	0.602100	0.915700	0.830600
C1181	C118	0.548100	0.839000	0.782000
C1191	C119	0.523400	0.913000	0.765000
H1191	H119	0.538200	0.965900	0.771900
C1201	C120	0.523500	0.765000	0.766000
H1201	H120	0.538600	0.712100	0.777600
Cu51	Cu5	0.696670	0.956800	0.723490
N611	N61	0.157300	0.531800	0.646700
C1211	C121	0.165800	0.558300	0.603300
H1211	H121	0.189400	0.539500	0.599700
N621	N62	0.134400	0.616500	0.565900
N631	N63	0.106500	0.626000	0.586200
C1221	C122	0.120700	0.573700	0.636200
H1221	H122	0.107400	0.567500	0.659400
C1231	C123	0.071600	0.689200	0.565200
H1231	H123	0.058500	0.701200	0.520600
H1241	H124	0.048000	0.666500	0.570100
C1241	C124	0.089700	0.770600	0.602300
C1251	C125	0.100400	0.777000	0.663900
H1251	H125	0.099100	0.726600	0.683400
C1261	C126	0.094000	0.845900	0.576700
H1261	H126	0.086600	0.845800	0.535000
N641	N64	0.245600	0.018300	0.757900
C1271	C127	0.231800	0.095800	0.734100
H1271	H127	0.249300	0.138800	0.731800
N651	N65	0.189100	0.102100	0.714100
N661	N66	0.176400	0.028500	0.725500
C1281	C128	0.211400	0.976700	0.752500
H1281	H128	0.211800	0.920300	0.765700
C1291	C129	0.131700	0.008500	0.709000
H1291	H129	0.131300	0.002200	0.747200
H1301	H130	0.111300	0.055000	0.683800
C1301	C130	0.116900	0.926500	0.672000
C1311	C131	0.112700	0.850900	0.697500
H1311	H131	0.118400	0.851000	0.738400
C1321	C132	0.109200	0.922000	0.611800
H1321	H132	0.114300	0.970600	0.594600
N671	N67	0.236200	0.376000	0.798100
C1331	C133	0.234600	0.291800	0.792100
H1331	H133	0.217300	0.261100	0.754400
N681	N68	0.261400	0.258400	0.848600
N691	N69	0.279600	0.321900	0.889300
C1341	C134	0.264100	0.394600	0.858100
H1341	H134	0.271500	0.449800	0.875600
C1351	C135	0.306000	0.311000	0.956800
H1351	H135	0.330200	0.269900	0.967900
H1361	H136	0.319600	0.365400	0.976900
C1361	C136	0.279300	0.278600	0.981500
C1371	C137	0.250000	0.333600	0.983800
H1371	H137	0.249400	0.391300	0.972800
C1381	C138	0.279700	0.194300	0.997500
H1381	H138	0.299200	0.155100	0.996200
N701	N70	0.144600	0.407900	0.722900
C1391	C139	0.118800	0.339100	0.687900
H1391	H139	0.115800	0.318100	0.651000
N711	N71	0.098200	0.306500	0.716600
N721	N72	0.111200	0.355100	0.769200
C1401	C140	0.139900	0.417700	0.773100
H1401	H140	0.153800	0.459800	0.804500
C1411	C141	0.096100	0.358000	0.812000
H1411	H141	0.113500	0.317400	0.846100
H1421	H142	0.102100	0.415700	0.830600
C1421	C142	0.048100	0.339000	0.782000
C1431	C143	0.023400	0.413000	0.765000
H1431	H143	0.038200	0.465900	0.771900
C1441	C144	0.023500	0.265000	0.766000
H1441	H144	0.038600	0.212100	0.777600
Cu61	Cu6	0.196670	0.456800	0.723490
N731	N73	0.342700	0.031800	0.853300
C1451	C145	0.334200	0.058300	0.896700
H1451	H145	0.310600	0.039500	0.900300
N741	N74	0.365600	0.116500	0.934100
N751	N75	0.393500	0.126000	0.913800
C1461	C146	0.379300	0.073700	0.863800
H1461	H146	0.392600	0.067500	0.840600
C1471	C147	0.428400	0.189200	0.934800
H1471	H147	0.441500	0.201200	0.979400
H1481	H148	0.452000	0.166500	0.929900
C1481	C148	0.410300	0.270600	0.897700
C1491	C149	0.399600	0.277000	0.836100
H1491	H149	0.400900	0.226600	0.816600
C1501	C150	0.406000	0.345900	0.923300
H1501	H150	0.413400	0.345800	0.965000
N761	N76	0.254400	0.518300	0.742100
C1511	C151	0.268200	0.595800	0.765900
H1511	H151	0.250700	0.638800	0.768200
N771	N77	0.310900	0.602100	0.785900
N781	N78	0.323600	0.528500	0.774500
C1521	C152	0.288600	0.476700	0.747500
H1521	H152	0.288200	0.420300	0.734300
C1531	C153	0.368300	0.508500	0.791000
H1531	H153	0.368700	0.502200	0.752800
H1541	H154	0.388700	0.555000	0.816200
C1541	C154	0.383100	0.426500	0.828000
C1551	C155	0.387300	0.350900	0.802500
H1551	H155	0.381600	0.351000	0.761600
C1561	C156	0.390800	0.422000	0.888200
H1561	H156	0.385700	0.470600	0.905400
N791	N79	0.263800	0.876000	0.701900
C1571	C157	0.265400	0.791800	0.707900
H1571	H157	0.282700	0.761100	0.745600
N801	N80	0.238600	0.758400	0.651400
N811	N81	0.220400	0.821900	0.610700
C1581	C158	0.235900	0.894600	0.641900
H1581	H158	0.228500	0.949800	0.624400
C1591	C159	0.194000	0.811000	0.543200
H1591	H159	0.169800	0.769900	0.532100
H1601	H160	0.180400	0.865400	0.523100
C1601	C160	0.220700	0.778600	0.518500
C1611	C161	0.250000	0.833600	0.516200
H1611	H161	0.250600	0.891300	0.527200
C1621	C162	0.220300	0.694300	0.502500
H1621	H162	0.200800	0.655100	0.503800
N821	N82	0.355400	0.907900	0.777100
C1631	C163	0.381200	0.839100	0.812100
H1631	H163	0.384200	0.818100	0.849000
N831	N83	0.401800	0.806500	0.783400
N841	N84	0.388800	0.855100	0.730800
C1641	C164	0.360100	0.917700	0.726900
H1641	H164	0.346200	0.959800	0.695500
C1651	C165	0.403900	0.858000	0.688000
H1651	H165	0.386500	0.817400	0.653900
H1661	H166	0.397900	0.915700	0.669400
C1661	C166	0.451900	0.839000	0.718000
C1671	C167	0.476600	0.913000	0.735000
H1671	H167	0.461800	0.965900	0.728100
C1681	C168	0.476500	0.765000	0.734000
H1681	H168	0.461400	0.712100	0.722400
Cu71	Cu7	0.303330	0.956800	0.776510
N851	N85	0.842700	0.531800	0.853300
C1691	C169	0.834200	0.558300	0.896700
H1691	H169	0.810600	0.539500	0.900300
N861	N86	0.865600	0.616500	0.934100
N871	N87	0.893500	0.626000	0.913800
C1701	C170	0.879300	0.573700	0.863800
H1701	H170	0.892600	0.567500	0.840600
C1711	C171	0.928400	0.689200	0.934800
H1711	H171	0.941500	0.701200	0.979400
H1721	H172	0.952000	0.666500	0.929900
C1721	C172	0.910300	0.770600	0.897700
C1731	C173	0.899600	0.777000	0.836100
H1731	H173	0.900900	0.726600	0.816600
C1741	C174	0.906000	0.845900	0.923300
H1741	H174	0.913400	0.845800	0.965000
N881	N88	0.754400	0.018300	0.742100
C1751	C175	0.768200	0.095800	0.765900
H1751	H175	0.750700	0.138800	0.768200
N891	N89	0.810900	0.102100	0.785900
N901	N90	0.823600	0.028500	0.774500
C1761	C176	0.788600	0.976700	0.747500
H1761	H176	0.788200	0.920300	0.734300
C1771	C177	0.868300	0.008500	0.791000
H1771	H177	0.868700	0.002200	0.752800
H1781	H178	0.888700	0.055000	0.816200
C1781	C178	0.883100	0.926500	0.828000
C1791	C179	0.887300	0.850900	0.802500
H1791	H179	0.881600	0.851000	0.761600
C1801	C180	0.890800	0.922000	0.888200
H1801	H180	0.885700	0.970600	0.905400
N911	N91	0.763800	0.376000	0.701900
C1811	C181	0.765400	0.291800	0.707900
H1811	H181	0.782700	0.261100	0.745600
N921	N92	0.738600	0.258400	0.651400
N931	N93	0.720400	0.321900	0.610700
C1821	C182	0.735900	0.394600	0.641900
H1821	H182	0.728500	0.449800	0.624400
C1831	C183	0.694000	0.311000	0.543200
H1831	H183	0.669800	0.269900	0.532100
H1841	H184	0.680400	0.365400	0.523100
C1841	C184	0.720700	0.278600	0.518500
C1851	C185	0.750000	0.333600	0.516200
H1851	H185	0.750600	0.391300	0.527200
C1861	C186	0.720300	0.194300	0.502500
H1861	H186	0.700800	0.155100	0.503800
N941	N94	0.855400	0.407900	0.777100
C1871	C187	0.881200	0.339100	0.812100
H1871	H187	0.884200	0.318100	0.849000
N951	N95	0.901800	0.306500	0.783400
N961	N96	0.888800	0.355100	0.730800
C1881	C188	0.860100	0.417700	0.726900
H1881	H188	0.846200	0.459800	0.695500
C1891	C189	0.903900	0.358000	0.688000
H1891	H189	0.886500	0.317400	0.653900
H1901	H190	0.897900	0.415700	0.669400
C1901	C190	0.951900	0.339000	0.718000
C1911	C191	0.976600	0.413000	0.735000
H1911	H191	0.961800	0.465900	0.728100
C1921	C192	0.976500	0.265000	0.734000
H1921	H192	0.961400	0.212100	0.722400
Cu81	Cu8	0.803330	0.456800	0.776510
