data_ZISFEO_clean_PM
_symmetry_space_group_name_H-M	'P1'
_cell_length_a	7.491000
_cell_length_b	15.386000
_cell_length_c	11.226000
_cell_angle_alpha	90.000000
_cell_angle_beta	90.000000
_cell_angle_gamma	90.000000
_symmetry_Int_Tables_number 1

loop_
_symmetry_equiv_pos_as_xyz
'x,y,z'

loop_
_atom_site_label
_atom_site_type_symbol
_atom_site_fract_x
_atom_site_fract_y
_atom_site_fract_z
Mn11	Mn1	0.476690	0.217660	0.357450
C11	C1	0.647100	0.394090	0.274300
C21	C2	0.761200	0.655130	0.011400
C31	C3	0.590900	0.480030	0.220300
C41	C4	0.427400	0.515960	0.255400
H11	H1	0.354700	0.485300	0.307800
C51	C5	0.371400	0.596400	0.213500
C61	C6	0.483100	0.641100	0.135500
H21	H2	0.448900	0.695600	0.108200
C71	C7	0.644400	0.606120	0.097300
C81	C8	0.698800	0.525250	0.140700
H31	H3	0.807200	0.501700	0.116500
C91	C9	0.194100	0.634200	0.252400
H41	H4	0.136100	0.594500	0.305800
H51	H5	0.120000	0.643400	0.183800
H61	H6	0.213900	0.688500	0.292200
O11	O1	0.525200	0.349160	0.319400
O21	O2	0.810300	0.375990	0.272400
O31	O3	0.714400	0.731220	0.979700
O41	O4	0.903700	0.622060	0.975800
Mn21	Mn2	0.523310	0.782340	0.857450
C101	C10	0.352900	0.605910	0.774300
C111	C11	0.238800	0.344870	0.511400
C121	C12	0.409100	0.519970	0.720300
C131	C13	0.572600	0.484040	0.755400
H71	H7	0.645300	0.514700	0.807800
C141	C14	0.628600	0.403600	0.713500
C151	C15	0.516900	0.358900	0.635500
H81	H8	0.551100	0.304400	0.608200
C161	C16	0.355600	0.393880	0.597300
C171	C17	0.301200	0.474750	0.640700
H91	H9	0.192800	0.498300	0.616500
C181	C18	0.805900	0.365800	0.752400
H101	H10	0.863900	0.405500	0.805800
H111	H11	0.880000	0.356600	0.683800
H121	H12	0.786100	0.311500	0.792200
O51	O5	0.474800	0.650840	0.819400
O61	O6	0.189700	0.624010	0.772400
O71	O7	0.285600	0.268780	0.479700
O81	O8	0.096300	0.377940	0.475800
Mn31	Mn3	0.976690	0.282340	0.357450
C191	C19	0.147100	0.105910	0.274300
C201	C20	0.261200	0.844870	0.011400
C211	C21	0.090900	0.019970	0.220300
C221	C22	0.927400	0.984040	0.255400
H131	H13	0.854700	0.014700	0.307800
C231	C23	0.871400	0.903600	0.213500
C241	C24	0.983100	0.858900	0.135500
H141	H14	0.948900	0.804400	0.108200
C251	C25	0.144400	0.893880	0.097300
C261	C26	0.198800	0.974750	0.140700
H151	H15	0.307200	0.998300	0.116500
C271	C27	0.694100	0.865800	0.252400
H161	H16	0.636100	0.905500	0.305800
H171	H17	0.620000	0.856600	0.183800
H181	H18	0.713900	0.811500	0.292200
O91	O9	0.025200	0.150840	0.319400
O101	O10	0.310300	0.124010	0.272400
O111	O11	0.214400	0.768780	0.979700
O121	O12	0.403700	0.877940	0.975800
Mn41	Mn4	0.023310	0.717660	0.857450
C281	C28	0.852900	0.894090	0.774300
C291	C29	0.738800	0.155130	0.511400
C301	C30	0.909100	0.980030	0.720300
C311	C31	0.072600	0.015960	0.755400
H191	H19	0.145300	0.985300	0.807800
C321	C32	0.128600	0.096400	0.713500
C331	C33	0.016900	0.141100	0.635500
H201	H20	0.051100	0.195600	0.608200
C341	C34	0.855600	0.106120	0.597300
C351	C35	0.801200	0.025250	0.640700
H211	H21	0.692800	0.001700	0.616500
C361	C36	0.305900	0.134200	0.752400
H221	H22	0.363900	0.094500	0.805800
H231	H23	0.380000	0.143400	0.683800
H241	H24	0.286100	0.188500	0.792200
O131	O13	0.974800	0.849160	0.819400
O141	O14	0.689700	0.875990	0.772400
O151	O15	0.785600	0.231220	0.479700
O161	O16	0.596300	0.122060	0.475800
