data_ZITRUP_clean_PM
_symmetry_space_group_name_H-M	'P1'
_cell_length_a	11.773900
_cell_length_b	11.773900
_cell_length_c	11.773900
_cell_angle_alpha	90.000000
_cell_angle_beta	90.000000
_cell_angle_gamma	90.000000
_symmetry_Int_Tables_number 1

loop_
_symmetry_equiv_pos_as_xyz
'x,y,z'

loop_
_atom_site_label
_atom_site_type_symbol
_atom_site_fract_x
_atom_site_fract_y
_atom_site_fract_z
Zn11	Zn1	0.000000	0.000000	0.000000
Zn21	Zn2	0.000000	0.500000	0.500000
Zn31	Zn3	0.500000	0.000000	0.500000
Zn41	Zn4	0.500000	0.500000	0.000000
Li11	Li1	0.250000	0.250000	0.250000
Li21	Li2	0.750000	0.750000	0.250000
Li31	Li3	0.750000	0.250000	0.750000
Li41	Li4	0.250000	0.750000	0.750000
C11	C1	0.154900	0.154900	0.154900
N11	N1	0.101300	0.101300	0.101300
C21	C2	0.154900	0.654900	0.654900
N21	N2	0.101300	0.601300	0.601300
C31	C3	0.654900	0.154900	0.654900
N31	N3	0.601300	0.101300	0.601300
C41	C4	0.654900	0.654900	0.154900
N41	N4	0.601300	0.601300	0.101300
C51	C5	0.845100	0.845100	0.154900
N51	N5	0.898700	0.898700	0.101300
C61	C6	0.845100	0.345100	0.654900
N61	N6	0.898700	0.398700	0.601300
C71	C7	0.345100	0.845100	0.654900
N71	N7	0.398700	0.898700	0.601300
C81	C8	0.345100	0.345100	0.154900
N81	N8	0.398700	0.398700	0.101300
C91	C9	0.845100	0.154900	0.845100
N91	N9	0.898700	0.101300	0.898700
C101	C10	0.845100	0.654900	0.345100
N101	N10	0.898700	0.601300	0.398700
C111	C11	0.345100	0.154900	0.345100
N111	N11	0.398700	0.101300	0.398700
C121	C12	0.345100	0.654900	0.845100
N121	N12	0.398700	0.601300	0.898700
C131	C13	0.154900	0.845100	0.845100
N131	N13	0.101300	0.898700	0.898700
C141	C14	0.154900	0.345100	0.345100
N141	N14	0.101300	0.398700	0.398700
C151	C15	0.654900	0.845100	0.345100
N151	N15	0.601300	0.898700	0.398700
C161	C16	0.654900	0.345100	0.845100
N161	N16	0.601300	0.398700	0.898700
