data_ZIZTOT_clean_PM
_symmetry_space_group_name_H-M	'P1'
_cell_length_a	8.798200
_cell_length_b	11.887600
_cell_length_c	12.644600
_cell_angle_alpha	95.219000
_cell_angle_beta	106.752000
_cell_angle_gamma	96.980000
_symmetry_Int_Tables_number 1

loop_
_symmetry_equiv_pos_as_xyz
'x,y,z'

loop_
_atom_site_label
_atom_site_type_symbol
_atom_site_fract_x
_atom_site_fract_y
_atom_site_fract_z
U11	U1	0.155610	0.094400	0.246090
C11	C1	0.120500	0.279300	0.656900
C21	C2	0.091000	0.391500	0.658900
H11	H1	0.070100	0.425500	0.592100
C31	C3	0.091400	0.454800	0.757300
C41	C4	0.122500	0.404800	0.855200
H21	H2	0.123800	0.447600	0.922700
C51	C5	0.152000	0.291900	0.854600
C61	C6	0.149900	0.229500	0.755600
H31	H3	0.168500	0.152500	0.754900
C71	C7	0.124200	0.212300	0.550500
H41	H4	0.058400	0.244000	0.485900
H51	H5	0.076100	0.131700	0.546700
C81	C8	0.055000	0.575400	0.757700
H61	H6	0.092400	0.610600	0.699800
H71	H7	0.117000	0.619800	0.830700
C91	C9	0.172300	0.235400	0.959300
H81	H8	0.225300	0.292900	0.025600
H91	H9	0.241400	0.175500	0.959300
O11	O1	0.404700	0.340800	0.565200
O21	O2	0.322900	0.151700	0.434000
O31	O3	0.420700	0.158800	0.641600
H101	H10	0.407000	0.078500	0.625000
O41	O4	0.824300	0.708100	0.719600
O51	O5	0.745400	0.502200	0.631000
O61	O6	0.807500	0.548500	0.838400
H111	H11	0.702000	0.511000	0.826000
O71	O7	0.869600	0.268600	0.952100
H121	H12	0.817000	0.278000	0.877900
O81	O8	0.909000	0.077800	0.870100
O91	O9	0.992900	0.139300	0.079800
P11	P1	0.324000	0.217040	0.542200
P21	P2	0.846620	0.586520	0.733050
P31	P3	0.979650	0.172630	0.965480
U21	U2	0.844390	0.905600	0.753910
C101	C10	0.879500	0.720700	0.343100
C111	C11	0.909000	0.608500	0.341100
H131	H13	0.929900	0.574500	0.407900
C121	C12	0.908600	0.545200	0.242700
C131	C13	0.877500	0.595200	0.144800
H141	H14	0.876200	0.552400	0.077300
C141	C14	0.848000	0.708100	0.145400
C151	C15	0.850100	0.770500	0.244400
H151	H15	0.831500	0.847500	0.245100
C161	C16	0.875800	0.787700	0.449500
H161	H16	0.941600	0.756000	0.514100
H171	H17	0.923900	0.868300	0.453300
C171	C17	0.945000	0.424600	0.242300
H181	H18	0.907600	0.389400	0.300200
H191	H19	0.883000	0.380200	0.169300
C181	C18	0.827700	0.764600	0.040700
H201	H20	0.774700	0.707100	0.974400
H211	H21	0.758600	0.824500	0.040700
O101	O10	0.595300	0.659200	0.434800
O111	O11	0.677100	0.848300	0.566000
O121	O12	0.579300	0.841200	0.358400
H221	H22	0.593000	0.921500	0.375000
O131	O13	0.175700	0.291900	0.280400
O141	O14	0.254600	0.497800	0.369000
O151	O15	0.192500	0.451500	0.161600
H231	H23	0.298000	0.489000	0.174000
O161	O16	0.130400	0.731400	0.047900
H241	H24	0.183000	0.722000	0.122100
O171	O17	0.091000	0.922200	0.129900
O181	O18	0.007100	0.860700	0.920200
P41	P4	0.676000	0.782960	0.457800
P51	P5	0.153380	0.413480	0.266950
P61	P6	0.020350	0.827370	0.034520
U31	U3	0.500000	0.500000	0.500000
