data_ZOFZOL_clean_PM
_symmetry_space_group_name_H-M	'P1'
_cell_length_a	10.213000
_cell_length_b	17.607000
_cell_length_c	28.123000
_cell_angle_alpha	90.000000
_cell_angle_beta	98.600000
_cell_angle_gamma	90.000000
_symmetry_Int_Tables_number 1

loop_
_symmetry_equiv_pos_as_xyz
'x,y,z'

loop_
_atom_site_label
_atom_site_type_symbol
_atom_site_fract_x
_atom_site_fract_y
_atom_site_fract_z
Co11	Co1	0.209430	0.623840	0.169440
Co21	Co2	0.008260	0.549410	0.255640
O11	O1	0.669200	0.345600	0.877250
O21	O2	0.542600	0.384400	0.811300
O31	O3	0.211200	0.512610	0.168130
O41	O4	0.119200	0.465100	0.229430
O51	O5	0.276500	0.199900	0.278460
O61	O6	0.341100	0.124000	0.222940
O71	O7	0.054600	0.393900	0.807260
O81	O8	0.966100	0.353100	0.869430
C11	C1	0.179800	0.459300	0.194120
C21	C2	0.222600	0.381100	0.180450
C31	C3	0.233900	0.321500	0.212910
H11	H1	0.208900	0.328500	0.243100
C41	C4	0.282300	0.251100	0.200960
C51	C5	0.317300	0.239800	0.155130
H21	H2	0.349800	0.193100	0.146800
C61	C6	0.303000	0.298900	0.122440
C71	C7	0.255400	0.369700	0.135050
H31	H3	0.245800	0.409100	0.112800
C81	C8	0.284200	0.320100	0.033330
H41	H4	0.209200	0.350600	0.028600
C91	C9	0.341300	0.317800	0.949010
C101	C10	0.556600	0.360900	0.853170
C111	C11	0.436900	0.349000	0.877590
C121	C12	0.309800	0.362700	0.853090
H51	H5	0.298700	0.378400	0.821200
C131	C13	0.452400	0.326900	0.925920
H61	H6	0.536700	0.318200	0.942700
C141	C14	0.301800	0.186400	0.236870
C151	C15	0.063900	0.369000	0.848600
C161	C16	0.200200	0.353100	0.876130
C171	C17	0.215400	0.330700	0.923520
H71	H7	0.141200	0.324100	0.938600
C181	C18	0.356300	0.297800	0.999290
N11	N1	0.340200	0.290200	0.074740
N21	N2	0.448400	0.251500	0.067100
N31	N3	0.458300	0.257200	0.021300
Co31	Co3	0.290570	0.123840	0.330560
Co41	Co4	0.491740	0.049410	0.244360
O91	O9	0.830800	0.845600	0.622750
O101	O10	0.957400	0.884400	0.688700
O111	O11	0.288800	0.012610	0.331870
O121	O12	0.380800	0.965100	0.270570
O131	O13	0.223500	0.699900	0.221540
O141	O14	0.158900	0.624000	0.277060
O151	O15	0.445400	0.893900	0.692740
O161	O16	0.533900	0.853100	0.630570
C191	C19	0.320200	0.959300	0.305880
C201	C20	0.277400	0.881100	0.319550
C211	C21	0.266100	0.821500	0.287090
H81	H8	0.291100	0.828500	0.256900
C221	C22	0.217700	0.751100	0.299040
C231	C23	0.182700	0.739800	0.344870
H91	H9	0.150200	0.693100	0.353200
C241	C24	0.197000	0.798900	0.377560
C251	C25	0.244600	0.869700	0.364950
H101	H10	0.254200	0.909100	0.387200
C261	C26	0.215800	0.820100	0.466670
H111	H11	0.290800	0.850600	0.471400
C271	C27	0.158700	0.817800	0.550990
C281	C28	0.943400	0.860900	0.646830
C291	C29	0.063100	0.849000	0.622410
C301	C30	0.190200	0.862700	0.646910
H121	H12	0.201300	0.878400	0.678800
C311	C31	0.047600	0.826900	0.574080
H131	H13	0.963300	0.818200	0.557300
C321	C32	0.198200	0.686400	0.263130
C331	C33	0.436100	0.869000	0.651400
C341	C34	0.299800	0.853100	0.623870
C351	C35	0.284600	0.830700	0.576480
H141	H14	0.358800	0.824100	0.561400
C361	C36	0.143700	0.797800	0.500710
N41	N4	0.159800	0.790200	0.425260
N51	N5	0.051600	0.751500	0.432900
N61	N6	0.041700	0.757200	0.478700
Co51	Co5	0.790570	0.376160	0.830560
Co61	Co6	0.991740	0.450590	0.744360
O171	O17	0.330800	0.654400	0.122750
O181	O18	0.457400	0.615600	0.188700
O191	O19	0.788800	0.487390	0.831870
O201	O20	0.880800	0.534900	0.770570
O211	O21	0.723500	0.800100	0.721540
O221	O22	0.658900	0.876000	0.777060
O231	O23	0.945400	0.606100	0.192740
O241	O24	0.033900	0.646900	0.130570
C371	C37	0.820200	0.540700	0.805880
C381	C38	0.777400	0.618900	0.819550
C391	C39	0.766100	0.678500	0.787090
H151	H15	0.791100	0.671500	0.756900
C401	C40	0.717700	0.748900	0.799040
C411	C41	0.682700	0.760200	0.844870
H161	H16	0.650200	0.806900	0.853200
C421	C42	0.697000	0.701100	0.877560
C431	C43	0.744600	0.630300	0.864950
H171	H17	0.754200	0.590900	0.887200
C441	C44	0.715800	0.679900	0.966670
H181	H18	0.790800	0.649400	0.971400
C451	C45	0.658700	0.682200	0.050990
C461	C46	0.443400	0.639100	0.146830
C471	C47	0.563100	0.651000	0.122410
C481	C48	0.690200	0.637300	0.146910
H191	H19	0.701300	0.621600	0.178800
C491	C49	0.547600	0.673100	0.074080
H201	H20	0.463300	0.681800	0.057300
C501	C50	0.698200	0.813600	0.763130
C511	C51	0.936100	0.631000	0.151400
C521	C52	0.799800	0.646900	0.123870
C531	C53	0.784600	0.669300	0.076480
H211	H21	0.858800	0.675900	0.061400
C541	C54	0.643700	0.702200	0.000710
N71	N7	0.659800	0.709800	0.925260
N81	N8	0.551600	0.748500	0.932900
N91	N9	0.541700	0.742800	0.978700
Co71	Co7	0.709430	0.876160	0.669440
Co81	Co8	0.508260	0.950590	0.755640
O251	O25	0.169200	0.154400	0.377250
O261	O26	0.042600	0.115600	0.311300
O271	O27	0.711200	0.987390	0.668130
O281	O28	0.619200	0.034900	0.729430
O291	O29	0.776500	0.300100	0.778460
O301	O30	0.841100	0.376000	0.722940
O311	O31	0.554600	0.106100	0.307260
O321	O32	0.466100	0.146900	0.369430
C551	C55	0.679800	0.040700	0.694120
C561	C56	0.722600	0.118900	0.680450
C571	C57	0.733900	0.178500	0.712910
H221	H22	0.708900	0.171500	0.743100
C581	C58	0.782300	0.248900	0.700960
C591	C59	0.817300	0.260200	0.655130
H231	H23	0.849800	0.306900	0.646800
C601	C60	0.803000	0.201100	0.622440
C611	C61	0.755400	0.130300	0.635050
H241	H24	0.745800	0.090900	0.612800
C621	C62	0.784200	0.179900	0.533330
H251	H25	0.709200	0.149400	0.528600
C631	C63	0.841300	0.182200	0.449010
C641	C64	0.056600	0.139100	0.353170
C651	C65	0.936900	0.151000	0.377590
C661	C66	0.809800	0.137300	0.353090
H261	H26	0.798700	0.121600	0.321200
C671	C67	0.952400	0.173100	0.425920
H271	H27	0.036700	0.181800	0.442700
C681	C68	0.801800	0.313600	0.736870
C691	C69	0.563900	0.131000	0.348600
C701	C70	0.700200	0.146900	0.376130
C711	C71	0.715400	0.169300	0.423520
H281	H28	0.641200	0.175900	0.438600
C721	C72	0.856300	0.202200	0.499290
N101	N10	0.840200	0.209800	0.574740
N111	N11	0.948400	0.248500	0.567100
N121	N12	0.958300	0.242800	0.521300
