data_ZOHBEF_clean_PM
_symmetry_space_group_name_H-M	'P1'
_cell_length_a	15.930000
_cell_length_b	13.588000
_cell_length_c	6.663000
_cell_angle_alpha	90.000000
_cell_angle_beta	97.392000
_cell_angle_gamma	90.000000
_symmetry_Int_Tables_number 1

loop_
_symmetry_equiv_pos_as_xyz
'x,y,z'

loop_
_atom_site_label
_atom_site_type_symbol
_atom_site_fract_x
_atom_site_fract_y
_atom_site_fract_z
Pr11	Pr1	0.749450	0.940040	0.028610
C11	C1	0.643300	0.783900	0.657500
C21	C2	0.548500	0.783400	0.623000
C31	C3	0.505600	0.873800	0.621100
H11	H1	0.537000	0.931200	0.645300
C41	C4	0.376800	0.797500	0.555200
H21	H2	0.318100	0.802200	0.530900
C51	C5	0.413600	0.704200	0.557800
C61	C6	0.500700	0.697200	0.593000
H31	H3	0.527100	0.636100	0.596800
C71	C7	0.357700	0.614400	0.521800
C81	C8	0.899300	0.952400	0.329000
C91	C9	0.981300	0.953900	0.489000
H41	H4	0.966500	0.932500	0.618800
H51	H5	0.021900	0.907300	0.447600
N11	N1	0.421600	0.880500	0.586000
O11	O1	0.680600	0.862000	0.709900
O21	O2	0.679600	0.704400	0.633300
O31	O3	0.281300	0.624500	0.450500
O41	O4	0.389800	0.530900	0.563000
O51	O5	0.888600	0.013300	0.185000
O61	O6	0.849000	0.883000	0.339400
Pr21	Pr2	0.250550	0.440040	0.471390
C101	C10	0.356700	0.283900	0.842500
C111	C11	0.451500	0.283400	0.877000
C121	C12	0.494400	0.373800	0.878900
H61	H6	0.463000	0.431200	0.854700
C131	C13	0.623200	0.297500	0.944800
H71	H7	0.681900	0.302200	0.969100
C141	C14	0.586400	0.204200	0.942200
C151	C15	0.499300	0.197200	0.907000
H81	H8	0.472900	0.136100	0.903200
C161	C16	0.642300	0.114400	0.978200
C171	C17	0.100700	0.452400	0.171000
C181	C18	0.018700	0.453900	0.011000
H91	H9	0.033500	0.432500	0.881200
H101	H10	0.978100	0.407300	0.052400
N21	N2	0.578400	0.380500	0.914000
O71	O7	0.319400	0.362000	0.790100
O81	O8	0.320400	0.204400	0.866700
O91	O9	0.718700	0.124500	0.049500
O101	O10	0.610200	0.030900	0.937000
O111	O11	0.111400	0.513300	0.315000
O121	O12	0.151000	0.383000	0.160600
Pr31	Pr3	0.250550	0.059960	0.971390
C191	C19	0.356700	0.216100	0.342500
C201	C20	0.451500	0.216600	0.377000
C211	C21	0.494400	0.126200	0.378900
H111	H11	0.463000	0.068800	0.354700
C221	C22	0.623200	0.202500	0.444800
H121	H12	0.681900	0.197800	0.469100
C231	C23	0.586400	0.295800	0.442200
C241	C24	0.499300	0.302800	0.407000
H131	H13	0.472900	0.363900	0.403200
C251	C25	0.642300	0.385600	0.478200
C261	C26	0.100700	0.047600	0.671000
C271	C27	0.018700	0.046100	0.511000
H141	H14	0.033500	0.067500	0.381200
H151	H15	0.978100	0.092700	0.552400
N31	N3	0.578400	0.119500	0.414000
O131	O13	0.319400	0.138000	0.290100
O141	O14	0.320400	0.295600	0.366700
O151	O15	0.718700	0.375500	0.549500
O161	O16	0.610200	0.469100	0.437000
O171	O17	0.111400	0.986700	0.815000
O181	O18	0.151000	0.117000	0.660600
Pr41	Pr4	0.749450	0.559960	0.528610
C281	C28	0.643300	0.716100	0.157500
C291	C29	0.548500	0.716600	0.123000
C301	C30	0.505600	0.626200	0.121100
H161	H16	0.537000	0.568800	0.145300
C311	C31	0.376800	0.702500	0.055200
H171	H17	0.318100	0.697800	0.030900
C321	C32	0.413600	0.795800	0.057800
C331	C33	0.500700	0.802800	0.093000
H181	H18	0.527100	0.863900	0.096800
C341	C34	0.357700	0.885600	0.021800
C351	C35	0.899300	0.547600	0.829000
C361	C36	0.981300	0.546100	0.989000
H191	H19	0.966500	0.567500	0.118800
H201	H20	0.021900	0.592700	0.947600
N41	N4	0.421600	0.619500	0.086000
O191	O19	0.680600	0.638000	0.209900
O201	O20	0.679600	0.795600	0.133300
O211	O21	0.281300	0.875500	0.950500
O221	O22	0.389800	0.969100	0.063000
O231	O23	0.888600	0.486700	0.685000
O241	O24	0.849000	0.617000	0.839400
