data_ZOMNUM_clean_PM
_symmetry_space_group_name_H-M	'P1'
_cell_length_a	13.850000
_cell_length_b	12.770000
_cell_length_c	6.939000
_cell_angle_alpha	90.000000
_cell_angle_beta	91.450000
_cell_angle_gamma	90.000000
_symmetry_Int_Tables_number 1

loop_
_symmetry_equiv_pos_as_xyz
'x,y,z'

loop_
_atom_site_label
_atom_site_type_symbol
_atom_site_fract_x
_atom_site_fract_y
_atom_site_fract_z
C11	C1	0.947200	0.659200	0.462400
H11	H1	0.945600	0.655000	0.322800
H21	H2	0.913900	0.598400	0.512000
C21	C2	0.803200	0.771000	0.422400
H31	H3	0.814500	0.783700	0.287000
H41	H4	0.772700	0.833000	0.473900
C31	C3	0.735100	0.680200	0.439000
C41	C4	0.697400	0.628700	0.281600
H51	H5	0.712700	0.651300	0.158600
C51	C5	0.636200	0.542700	0.302600
H61	H6	0.614300	0.508100	0.191800
C61	C6	0.645200	0.554700	0.623400
H71	H7	0.630900	0.528600	0.744600
C71	C7	0.706100	0.642800	0.613400
H81	H8	0.726900	0.675900	0.726400
N11	N1	0.897400	0.755500	0.523700
H91	H9	0.885100	0.747900	0.651200
N21	N2	0.607400	0.507400	0.472000
O11	O1	0.977500	0.883300	0.189800
C81	C8	0.447200	0.159200	0.462400
H101	H10	0.445600	0.155000	0.322800
H111	H11	0.413900	0.098400	0.512000
C91	C9	0.303200	0.271000	0.422400
H121	H12	0.314500	0.283700	0.287000
H131	H13	0.272700	0.333000	0.473900
C101	C10	0.235100	0.180200	0.439000
C111	C11	0.197400	0.128700	0.281600
H141	H14	0.212700	0.151300	0.158600
C121	C12	0.136200	0.042700	0.302600
H151	H15	0.114300	0.008100	0.191800
C131	C13	0.145200	0.054700	0.623400
H161	H16	0.130900	0.028600	0.744600
C141	C14	0.206100	0.142800	0.613400
H171	H17	0.226900	0.175900	0.726400
N31	N3	0.397400	0.255500	0.523700
H181	H18	0.385100	0.247900	0.651200
N41	N4	0.107400	0.007400	0.472000
O21	O2	0.477500	0.383300	0.189800
C151	C15	0.052800	0.659200	0.537600
H191	H19	0.054400	0.655000	0.677200
H201	H20	0.086100	0.598400	0.488000
C161	C16	0.196800	0.771000	0.577600
H211	H21	0.185500	0.783700	0.713000
H221	H22	0.227300	0.833000	0.526100
C171	C17	0.264900	0.680200	0.561000
C181	C18	0.302600	0.628700	0.718400
H231	H23	0.287300	0.651300	0.841400
C191	C19	0.363800	0.542700	0.697400
H241	H24	0.385700	0.508100	0.808200
C201	C20	0.354800	0.554700	0.376600
H251	H25	0.369100	0.528600	0.255400
C211	C21	0.293900	0.642800	0.386600
H261	H26	0.273100	0.675900	0.273600
N51	N5	0.102600	0.755500	0.476300
H271	H27	0.114900	0.747900	0.348800
N61	N6	0.392600	0.507400	0.528000
O31	O3	0.022500	0.883300	0.810200
C221	C22	0.552800	0.159200	0.537600
H281	H28	0.554400	0.155000	0.677200
H291	H29	0.586100	0.098400	0.488000
C231	C23	0.696800	0.271000	0.577600
H301	H30	0.685500	0.283700	0.713000
H311	H31	0.727300	0.333000	0.526100
C241	C24	0.764900	0.180200	0.561000
C251	C25	0.802600	0.128700	0.718400
H321	H32	0.787300	0.151300	0.841400
C261	C26	0.863800	0.042700	0.697400
H331	H33	0.885700	0.008100	0.808200
C271	C27	0.854800	0.054700	0.376600
H341	H34	0.869100	0.028600	0.255400
C281	C28	0.793900	0.142800	0.386600
H351	H35	0.773100	0.175900	0.273600
N71	N7	0.602600	0.255500	0.476300
H361	H36	0.614900	0.247900	0.348800
N81	N8	0.892600	0.007400	0.528000
O41	O4	0.522500	0.383300	0.810200
Zn11	Zn1	0.000000	0.884970	0.500000
Zn21	Zn2	0.500000	0.384970	0.500000
Cr11	Cr1	0.000000	0.809640	0.000000
Cr21	Cr2	0.500000	0.309640	0.000000
