data_ZOMNEW_clean_PM
_symmetry_space_group_name_H-M	'P1'
_cell_length_a	13.901000
_cell_length_b	12.713000
_cell_length_c	7.070000
_cell_angle_alpha	90.000000
_cell_angle_beta	91.139000
_cell_angle_gamma	90.000000
_symmetry_Int_Tables_number 1

loop_
_symmetry_equiv_pos_as_xyz
'x,y,z'

loop_
_atom_site_label
_atom_site_type_symbol
_atom_site_fract_x
_atom_site_fract_y
_atom_site_fract_z
C11	C1	0.804900	0.965200	0.429500
H11	H1	0.814200	0.980200	0.296700
H21	H2	0.774800	0.026400	0.485100
C21	C2	0.736500	0.872500	0.444800
C31	C3	0.948200	0.853500	0.465300
H31	H3	0.946300	0.846900	0.328600
H41	H4	0.915300	0.793200	0.517700
C41	C4	0.709400	0.837800	0.615300
H51	H5	0.731600	0.871000	0.725000
C51	C5	0.696100	0.827500	0.291200
H61	H6	0.708200	0.854300	0.171600
C61	C6	0.635500	0.740000	0.310300
H71	H7	0.614300	0.705500	0.201100
C71	C7	0.646100	0.749200	0.626300
H81	H8	0.631600	0.722200	0.744700
N11	N1	0.897800	0.950100	0.519600
H91	H9	0.886000	0.943000	0.645100
N21	N2	0.607400	0.704300	0.473500
O11	O1	0.978700	0.079800	0.201500
C81	C8	0.304900	0.465200	0.429500
H101	H10	0.314200	0.480200	0.296700
H111	H11	0.274800	0.526400	0.485100
C91	C9	0.236500	0.372500	0.444800
C101	C10	0.448200	0.353500	0.465300
H121	H12	0.446300	0.346900	0.328600
H131	H13	0.415300	0.293200	0.517700
C111	C11	0.209400	0.337800	0.615300
H141	H14	0.231600	0.371000	0.725000
C121	C12	0.196100	0.327500	0.291200
H151	H15	0.208200	0.354300	0.171600
C131	C13	0.135500	0.240000	0.310300
H161	H16	0.114300	0.205500	0.201100
C141	C14	0.146100	0.249200	0.626300
H171	H17	0.131600	0.222200	0.744700
N31	N3	0.397800	0.450100	0.519600
H181	H18	0.386000	0.443000	0.645100
N41	N4	0.107400	0.204300	0.473500
O21	O2	0.478700	0.579800	0.201500
C151	C15	0.195100	0.965200	0.570500
H191	H19	0.185800	0.980200	0.703300
H201	H20	0.225200	0.026400	0.514900
C161	C16	0.263500	0.872500	0.555200
C171	C17	0.051800	0.853500	0.534700
H211	H21	0.053700	0.846900	0.671400
H221	H22	0.084700	0.793200	0.482300
C181	C18	0.290600	0.837800	0.384700
H231	H23	0.268400	0.871000	0.275000
C191	C19	0.303900	0.827500	0.708800
H241	H24	0.291800	0.854300	0.828400
C201	C20	0.364500	0.740000	0.689700
H251	H25	0.385700	0.705500	0.798900
C211	C21	0.353900	0.749200	0.373700
H261	H26	0.368400	0.722200	0.255300
N51	N5	0.102200	0.950100	0.480400
H271	H27	0.114000	0.943000	0.354900
N61	N6	0.392600	0.704300	0.526500
O31	O3	0.021300	0.079800	0.798500
C221	C22	0.695100	0.465200	0.570500
H281	H28	0.685800	0.480200	0.703300
H291	H29	0.725200	0.526400	0.514900
C231	C23	0.763500	0.372500	0.555200
C241	C24	0.551800	0.353500	0.534700
H301	H30	0.553700	0.346900	0.671400
H311	H31	0.584700	0.293200	0.482300
C251	C25	0.790600	0.337800	0.384700
H321	H32	0.768400	0.371000	0.275000
C261	C26	0.803900	0.327500	0.708800
H331	H33	0.791800	0.354300	0.828400
C271	C27	0.864500	0.240000	0.689700
H341	H34	0.885700	0.205500	0.798900
C281	C28	0.853900	0.249200	0.373700
H351	H35	0.868400	0.222200	0.255300
N71	N7	0.602200	0.450100	0.480400
H361	H36	0.614000	0.443000	0.354900
N81	N8	0.892600	0.204300	0.526500
O41	O4	0.521300	0.579800	0.798500
Zn11	Zn1	0.000000	0.081250	0.500000
Zn21	Zn2	0.500000	0.581250	0.500000
Mo11	Mo1	0.000000	0.000720	0.000000
Mo21	Mo2	0.500000	0.500720	0.000000
