data_ZOXFEZ_clean_PM
_symmetry_space_group_name_H-M	'P1'
_cell_length_a	17.573000
_cell_length_b	16.528000
_cell_length_c	17.595000
_cell_angle_alpha	90.000000
_cell_angle_beta	90.000000
_cell_angle_gamma	90.000000
_symmetry_Int_Tables_number 1

loop_
_symmetry_equiv_pos_as_xyz
'x,y,z'

loop_
_atom_site_label
_atom_site_type_symbol
_atom_site_fract_x
_atom_site_fract_y
_atom_site_fract_z
N11	N1	0.334600	0.665500	0.387900
N21	N2	0.165800	0.589300	0.179400
N31	N3	0.110100	0.825500	0.335400
C11	C1	0.267000	0.678900	0.344300
C21	C2	0.158900	0.757600	0.316900
C31	C3	0.223100	0.744600	0.360500
H11	H1	0.235900	0.779600	0.399800
N41	N4	0.049200	0.917100	0.402000
C41	C4	0.092500	0.852800	0.404600
H21	H2	0.109100	0.828900	0.449400
C51	C5	0.184600	0.641700	0.241400
C61	C6	0.139400	0.708000	0.256900
H31	H3	0.096700	0.719000	0.227400
C71	C7	0.249700	0.626800	0.283700
H41	H4	0.281100	0.583200	0.272200
C81	C8	0.103500	0.591900	0.136700
H51	H5	0.064400	0.628900	0.144200
C91	C9	0.364400	0.593900	0.408400
H61	H6	0.343800	0.543900	0.395900
C101	C10	0.077200	0.877200	0.284300
H71	H7	0.080100	0.874300	0.231600
C111	C11	0.382800	0.724800	0.415500
H81	H8	0.377200	0.780400	0.409800
C121	C12	0.039300	0.933300	0.325800
H91	H9	0.011100	0.976000	0.306000
C131	C13	0.208900	0.526600	0.150900
H101	H10	0.256000	0.509300	0.168600
N51	N5	0.102600	0.537000	0.083000
C141	C14	0.169400	0.495700	0.093000
H111	H11	0.185100	0.452000	0.063500
N61	N6	0.427200	0.604300	0.448800
C151	C15	0.438800	0.686600	0.451800
H121	H12	0.479600	0.711800	0.475600
N71	N7	0.165400	0.334500	0.887900
N81	N8	0.334200	0.410700	0.679400
N91	N9	0.389900	0.174500	0.835400
C161	C16	0.233000	0.321100	0.844300
C171	C17	0.341100	0.242400	0.816900
C181	C18	0.276900	0.255400	0.860500
H131	H13	0.264100	0.220400	0.899800
N101	N10	0.450800	0.082900	0.902000
C191	C19	0.407500	0.147200	0.904600
H141	H14	0.390900	0.171100	0.949400
C201	C20	0.315400	0.358300	0.741400
C211	C21	0.360600	0.292000	0.756900
H151	H15	0.403300	0.281000	0.727400
C221	C22	0.250300	0.373200	0.783700
H161	H16	0.218900	0.416800	0.772200
C231	C23	0.396500	0.408100	0.636700
H171	H17	0.435600	0.371100	0.644200
C241	C24	0.135600	0.406100	0.908400
H181	H18	0.156200	0.456100	0.895900
C251	C25	0.422800	0.122800	0.784300
H191	H19	0.419900	0.125700	0.731600
C261	C26	0.117200	0.275200	0.915500
H201	H20	0.122800	0.219600	0.909800
C271	C27	0.460700	0.066700	0.825800
H211	H21	0.488900	0.024000	0.806000
C281	C28	0.291100	0.473400	0.650900
H221	H22	0.244000	0.490700	0.668600
N111	N11	0.397400	0.463000	0.583000
C291	C29	0.330600	0.504300	0.593000
H231	H23	0.314900	0.548000	0.563500
N121	N12	0.072800	0.395700	0.948800
C301	C30	0.061200	0.313400	0.951800
H241	H24	0.020400	0.288200	0.975600
N131	N13	0.665400	0.165500	0.112100
N141	N14	0.834200	0.089300	0.320600
N151	N15	0.889900	0.325500	0.164600
C311	C31	0.733000	0.178900	0.155700
C321	C32	0.841100	0.257600	0.183100
C331	C33	0.776900	0.244600	0.139500
H251	H25	0.764100	0.279600	0.100200
N161	N16	0.950800	0.417100	0.098000
C341	C34	0.907500	0.352800	0.095400
H261	H26	0.890900	0.328900	0.050600
C351	C35	0.815400	0.141700	0.258600
C361	C36	0.860600	0.208000	0.243100
H271	H27	0.903300	0.219000	0.272600
C371	C37	0.750300	0.126800	0.216300
H281	H28	0.718900	0.083200	0.227800
C381	C38	0.896500	0.091900	0.363300
H291	H29	0.935600	0.128900	0.355800
C391	C39	0.635600	0.093900	0.091600
H301	H30	0.656200	0.043900	0.104100
C401	C40	0.922800	0.377200	0.215700
H311	H31	0.919900	0.374300	0.268400
C411	C41	0.617200	0.224800	0.084500
H321	H32	0.622800	0.280400	0.090200
C421	C42	0.960700	0.433300	0.174200
H331	H33	0.988900	0.476000	0.194000
C431	C43	0.791100	0.026600	0.349100
H341	H34	0.744000	0.009300	0.331400
N171	N17	0.897400	0.037000	0.417000
C441	C44	0.830600	0.995700	0.407000
H351	H35	0.814900	0.952000	0.436500
N181	N18	0.572800	0.104300	0.051200
C451	C45	0.561200	0.186600	0.048200
H361	H36	0.520400	0.211800	0.024400
N191	N19	0.834600	0.834500	0.612100
N201	N20	0.665800	0.910700	0.820600
N211	N21	0.610100	0.674500	0.664600
C461	C46	0.767000	0.821100	0.655700
C471	C47	0.658900	0.742400	0.683100
C481	C48	0.723100	0.755400	0.639500
H371	H37	0.735900	0.720400	0.600200
N221	N22	0.549200	0.582900	0.598000
C491	C49	0.592500	0.647200	0.595400
H381	H38	0.609100	0.671100	0.550600
C501	C50	0.684600	0.858300	0.758600
C511	C51	0.639400	0.792000	0.743100
H391	H39	0.596700	0.781000	0.772600
C521	C52	0.749700	0.873200	0.716300
H401	H40	0.781100	0.916800	0.727800
C531	C53	0.603500	0.908100	0.863300
H411	H41	0.564400	0.871100	0.855800
C541	C54	0.864400	0.906100	0.591600
H421	H42	0.843800	0.956100	0.604100
C551	C55	0.577200	0.622800	0.715700
H431	H43	0.580100	0.625700	0.768400
C561	C56	0.882800	0.775200	0.584500
H441	H44	0.877200	0.719600	0.590200
C571	C57	0.539300	0.566700	0.674200
H451	H45	0.511100	0.524000	0.694000
C581	C58	0.708900	0.973400	0.849100
H461	H46	0.756000	0.990700	0.831400
N231	N23	0.602600	0.963000	0.917000
C591	C59	0.669400	0.004300	0.907000
H471	H47	0.685100	0.048000	0.936500
N241	N24	0.927200	0.895700	0.551200
C601	C60	0.938800	0.813400	0.548200
H481	H48	0.979600	0.788200	0.524400
N251	N25	0.665400	0.334500	0.612100
N261	N26	0.834200	0.410700	0.820600
N271	N27	0.889900	0.174500	0.664600
C611	C61	0.733000	0.321100	0.655700
C621	C62	0.841100	0.242400	0.683100
C631	C63	0.776900	0.255400	0.639500
H491	H49	0.764100	0.220400	0.600200
N281	N28	0.950800	0.082900	0.598000
C641	C64	0.907500	0.147200	0.595400
H501	H50	0.890900	0.171100	0.550600
C651	C65	0.815400	0.358300	0.758600
C661	C66	0.860600	0.292000	0.743100
H511	H51	0.903300	0.281000	0.772600
C671	C67	0.750300	0.373200	0.716300
H521	H52	0.718900	0.416800	0.727800
C681	C68	0.896500	0.408100	0.863300
H531	H53	0.935600	0.371100	0.855800
C691	C69	0.635600	0.406100	0.591600
H541	H54	0.656200	0.456100	0.604100
C701	C70	0.922800	0.122800	0.715700
H551	H55	0.919900	0.125700	0.768400
C711	C71	0.617200	0.275200	0.584500
H561	H56	0.622800	0.219600	0.590200
C721	C72	0.960700	0.066700	0.674200
H571	H57	0.988900	0.024000	0.694000
C731	C73	0.791100	0.473400	0.849100
H581	H58	0.744000	0.490700	0.831400
N291	N29	0.897400	0.463000	0.917000
C741	C74	0.830600	0.504300	0.907000
H591	H59	0.814900	0.548000	0.936500
N301	N30	0.572800	0.395700	0.551200
C751	C75	0.561200	0.313400	0.548200
H601	H60	0.520400	0.288200	0.524400
N311	N31	0.834600	0.665500	0.112100
N321	N32	0.665800	0.589300	0.320600
N331	N33	0.610100	0.825500	0.164600
C761	C76	0.767000	0.678900	0.155700
C771	C77	0.658900	0.757600	0.183100
C781	C78	0.723100	0.744600	0.139500
H611	H61	0.735900	0.779600	0.100200
N341	N34	0.549200	0.917100	0.098000
C791	C79	0.592500	0.852800	0.095400
H621	H62	0.609100	0.828900	0.050600
C801	C80	0.684600	0.641700	0.258600
C811	C81	0.639400	0.708000	0.243100
H631	H63	0.596700	0.719000	0.272600
C821	C82	0.749700	0.626800	0.216300
H641	H64	0.781100	0.583200	0.227800
C831	C83	0.603500	0.591900	0.363300
H651	H65	0.564400	0.628900	0.355800
C841	C84	0.864400	0.593900	0.091600
H661	H66	0.843800	0.543900	0.104100
C851	C85	0.577200	0.877200	0.215700
H671	H67	0.580100	0.874300	0.268400
C861	C86	0.882800	0.724800	0.084500
H681	H68	0.877200	0.780400	0.090200
C871	C87	0.539300	0.933300	0.174200
H691	H69	0.511100	0.976000	0.194000
C881	C88	0.708900	0.526600	0.349100
H701	H70	0.756000	0.509300	0.331400
N351	N35	0.602600	0.537000	0.417000
C891	C89	0.669400	0.495700	0.407000
H711	H71	0.685100	0.452000	0.436500
N361	N36	0.927200	0.604300	0.051200
C901	C90	0.938800	0.686600	0.048200
H721	H72	0.979600	0.711800	0.024400
N371	N37	0.334600	0.834500	0.887900
N381	N38	0.165800	0.910700	0.679400
N391	N39	0.110100	0.674500	0.835400
C911	C91	0.267000	0.821100	0.844300
C921	C92	0.158900	0.742400	0.816900
C931	C93	0.223100	0.755400	0.860500
H731	H73	0.235900	0.720400	0.899800
N401	N40	0.049200	0.582900	0.902000
C941	C94	0.092500	0.647200	0.904600
H741	H74	0.109100	0.671100	0.949400
C951	C95	0.184600	0.858300	0.741400
C961	C96	0.139400	0.792000	0.756900
H751	H75	0.096700	0.781000	0.727400
C971	C97	0.249700	0.873200	0.783700
H761	H76	0.281100	0.916800	0.772200
C981	C98	0.103500	0.908100	0.636700
H771	H77	0.064400	0.871100	0.644200
C991	C99	0.364400	0.906100	0.908400
H781	H78	0.343800	0.956100	0.895900
C1001	C100	0.077200	0.622800	0.784300
H791	H79	0.080100	0.625700	0.731600
C1011	C101	0.382800	0.775200	0.915500
H801	H80	0.377200	0.719600	0.909800
C1021	C102	0.039300	0.566700	0.825800
H811	H81	0.011100	0.524000	0.806000
C1031	C103	0.208900	0.973400	0.650900
H821	H82	0.256000	0.990700	0.668600
N411	N41	0.102600	0.963000	0.583000
C1041	C104	0.169400	0.004300	0.593000
H831	H83	0.185100	0.048000	0.563500
N421	N42	0.427200	0.895700	0.948800
C1051	C105	0.438800	0.813400	0.951800
H841	H84	0.479600	0.788200	0.975600
N431	N43	0.165400	0.165500	0.387900
N441	N44	0.334200	0.089300	0.179400
N451	N45	0.389900	0.325500	0.335400
C1061	C106	0.233000	0.178900	0.344300
C1071	C107	0.341100	0.257600	0.316900
C1081	C108	0.276900	0.244600	0.360500
H851	H85	0.264100	0.279600	0.399800
N461	N46	0.450800	0.417100	0.402000
C1091	C109	0.407500	0.352800	0.404600
H861	H86	0.390900	0.328900	0.449400
C1101	C110	0.315400	0.141700	0.241400
C1111	C111	0.360600	0.208000	0.256900
H871	H87	0.403300	0.219000	0.227400
C1121	C112	0.250300	0.126800	0.283700
H881	H88	0.218900	0.083200	0.272200
C1131	C113	0.396500	0.091900	0.136700
H891	H89	0.435600	0.128900	0.144200
C1141	C114	0.135600	0.093900	0.408400
H901	H90	0.156200	0.043900	0.395900
C1151	C115	0.422800	0.377200	0.284300
H911	H91	0.419900	0.374300	0.231600
C1161	C116	0.117200	0.224800	0.415500
H921	H92	0.122800	0.280400	0.409800
C1171	C117	0.460700	0.433300	0.325800
H931	H93	0.488900	0.476000	0.306000
C1181	C118	0.291100	0.026600	0.150900
H941	H94	0.244000	0.009300	0.168600
N471	N47	0.397400	0.037000	0.083000
C1191	C119	0.330600	0.995700	0.093000
H951	H95	0.314900	0.952000	0.063500
N481	N48	0.072800	0.104300	0.448800
C1201	C120	0.061200	0.186600	0.451800
H961	H96	0.020400	0.211800	0.475600
Cd11	Cd1	0.000000	0.000000	0.500000
Cd21	Cd2	0.500000	0.000000	0.000000
Cd31	Cd3	0.000000	0.500000	0.000000
Cd41	Cd4	0.500000	0.500000	0.500000
