data_ZOXTEN_clean_PM
_symmetry_space_group_name_H-M	'P1'
_cell_length_a	9.177400
_cell_length_b	12.936800
_cell_length_c	18.502300
_cell_angle_alpha	71.950000
_cell_angle_beta	75.640300
_cell_angle_gamma	69.224800
_symmetry_Int_Tables_number 1

loop_
_symmetry_equiv_pos_as_xyz
'x,y,z'

loop_
_atom_site_label
_atom_site_type_symbol
_atom_site_fract_x
_atom_site_fract_y
_atom_site_fract_z
Ho11	Ho1	0.236060	0.411660	0.505140
Ho21	Ho2	0.763940	0.588340	0.494860
Ho31	Ho3	0.847140	0.911660	0.005140
Ho41	Ho4	0.152860	0.088340	0.994860
Zn11	Zn1	0.799480	0.089020	0.335320
Zn21	Zn2	0.776180	0.589020	0.835320
Zn31	Zn3	0.200520	0.910980	0.664680
Zn41	Zn4	0.223820	0.410980	0.164680
H11	H1	0.757500	0.954200	0.648400
H21	H2	0.733600	0.193000	0.535400
H31	H3	0.109900	0.107400	0.409400
H41	H4	0.364700	0.802900	0.871100
H51	H5	0.496300	0.143400	0.159000
H61	H6	0.639900	0.454200	0.148400
H71	H7	0.961300	0.302900	0.371100
H81	H8	0.373300	0.607400	0.909400
H91	H9	0.503700	0.856600	0.841000
H101	H10	0.344300	0.918600	0.808200
H111	H11	0.462000	0.307000	0.964600
H121	H12	0.242500	0.045800	0.351600
H131	H13	0.635300	0.197100	0.128900
H141	H14	0.071100	0.581400	0.691800
H151	H15	0.360100	0.545800	0.851600
H161	H16	0.711400	0.487400	0.061400
H171	H17	0.266400	0.807000	0.464600
H181	H18	0.201300	0.643400	0.659000
H191	H19	0.928900	0.418600	0.308200
H201	H20	0.288600	0.512600	0.938600
H211	H21	0.626700	0.392600	0.090600
H221	H22	0.890100	0.892600	0.590600
H231	H23	0.260200	0.012600	0.438600
H241	H24	0.739800	0.987400	0.561400
H251	H25	0.655700	0.081400	0.191800
H261	H26	0.538000	0.693000	0.035400
H271	H27	0.798700	0.356600	0.341000
H281	H28	0.038700	0.697100	0.628900
C11	C1	0.755700	0.559000	0.685800
C21	C2	0.974400	0.282200	0.265400
C31	C3	0.303700	0.721000	0.042800
C41	C4	0.021500	0.158000	0.200200
C51	C5	0.781500	0.859300	0.420700
C61	C6	0.244300	0.441000	0.314200
C71	C7	0.474300	0.551400	0.080800
C81	C8	0.218500	0.140700	0.579300
C91	C9	0.443400	0.738400	0.592000
C101	C10	0.620300	0.658000	0.700200
C111	C11	0.000500	0.941000	0.814200
C121	C12	0.626400	0.463700	0.096700
C131	C13	0.892200	0.767900	0.838500
C141	C14	0.582700	0.154300	0.173100
C151	C15	0.910100	0.345700	0.326900
C161	C16	0.696300	0.279000	0.957200
C171	C17	0.883700	0.346300	0.519900
C181	C18	0.772400	0.360400	0.929000
C191	C19	0.061500	0.640700	0.079300
C201	C20	0.893500	0.051400	0.580800
C211	C21	0.061800	0.139600	0.571000
C221	C22	0.999500	0.059000	0.185800
C231	C23	0.813200	0.963700	0.596700
C241	C24	0.226200	0.238400	0.092000
C251	C25	0.373600	0.536300	0.903300
C261	C26	0.186800	0.036300	0.403300
C271	C27	0.106500	0.948600	0.419200
C281	C28	0.773800	0.761600	0.908000
C291	C29	0.089900	0.654300	0.673100
C301	C30	0.749900	0.153700	0.980100
C311	C31	0.498600	0.732100	0.661500
C321	C32	0.556600	0.261600	0.408000
C331	C33	0.501400	0.267900	0.338500
C341	C34	0.107800	0.232100	0.161500
C351	C35	0.478000	0.782200	0.765400
C361	C36	0.938200	0.860400	0.429000
C371	C37	0.932500	0.221000	0.542800
C381	C38	0.379700	0.342000	0.299800
C391	C39	0.250100	0.846300	0.019900
C401	C40	0.417300	0.845700	0.826900
C411	C41	0.525700	0.448600	0.919200
C421	C42	0.938500	0.359300	0.920700
C431	C43	0.227600	0.639600	0.071000
C441	C44	0.116300	0.653700	0.480100
C451	C45	0.025600	0.717800	0.734600
C461	C46	0.522000	0.217800	0.234600
C471	C47	0.978500	0.842000	0.799800
C481	C48	0.067500	0.779000	0.457200
N11	N1	0.827700	0.162600	0.549400
N21	N2	0.034900	0.034600	0.595800
N31	N3	0.172300	0.837400	0.450600
N41	N4	0.539700	0.337400	0.950600
N51	N5	0.665300	0.465400	0.904200
N61	N6	0.334700	0.534600	0.095800
N71	N7	0.408450	0.809800	0.703900
N81	N8	0.062500	0.809900	0.733300
N91	N9	0.591550	0.190200	0.296100
N101	N10	0.937500	0.190100	0.266700
N111	N11	0.460300	0.662600	0.049400
N121	N12	0.965100	0.965400	0.404200
N131	N13	0.605700	0.690100	0.766700
N141	N14	0.077850	0.309800	0.203900
N151	N15	0.394300	0.309900	0.233300
N161	N16	0.922150	0.690200	0.796100
O11	O1	0.739640	0.399120	0.517400
O21	O2	0.077280	0.996540	0.761500
O31	O3	0.922720	0.003460	0.238500
O41	O4	0.835320	0.503460	0.738500
O51	O5	0.298300	0.052500	0.618900
O61	O6	0.484610	0.336680	0.446100
O71	O7	0.287210	0.317580	0.074000
O81	O8	0.019670	0.598760	0.495300
O91	O9	0.712790	0.682420	0.926000
O101	O10	0.945670	0.966560	0.878300
O111	O11	0.267390	0.163320	0.053900
O121	O12	0.113730	0.901240	0.004700
O131	O13	0.030300	0.552500	0.118900
O141	O14	0.980330	0.401240	0.504700
O151	O15	0.886270	0.098760	0.995300
O161	O16	0.263500	0.226500	0.544500
O171	O17	0.321210	0.817580	0.574000
O181	O18	0.790530	0.533440	0.621700
O191	O19	0.054330	0.033440	0.121700
O201	O20	0.260360	0.600880	0.482600
O211	O21	0.736500	0.773500	0.455500
O221	O22	0.732610	0.836680	0.946100
O231	O23	0.969700	0.447500	0.881100
O241	O24	0.515390	0.663320	0.553900
O251	O25	0.965500	0.726500	0.044500
O261	O26	0.209470	0.466560	0.378300
O271	O27	0.164680	0.496540	0.261500
O281	O28	0.034500	0.273500	0.955500
O291	O29	0.701700	0.947500	0.381100
O301	O30	0.656160	0.100880	0.982600
O311	O31	0.343840	0.899120	0.017400
O321	O32	0.678790	0.182420	0.426000
