data_ZOXVEP_clean_PM
_symmetry_space_group_name_H-M	'P1'
_cell_length_a	9.152300
_cell_length_b	12.994300
_cell_length_c	18.427100
_cell_angle_alpha	72.461600
_cell_angle_beta	75.620800
_cell_angle_gamma	69.380200
_symmetry_Int_Tables_number 1

loop_
_symmetry_equiv_pos_as_xyz
'x,y,z'

loop_
_atom_site_label
_atom_site_type_symbol
_atom_site_fract_x
_atom_site_fract_y
_atom_site_fract_z
Dy11	Dy1	0.237180	0.409680	0.505380
Dy21	Dy2	0.847760	0.909680	0.005380
Dy31	Dy3	0.152240	0.090320	0.994620
Dy41	Dy4	0.762820	0.590320	0.494620
Co11	Co1	0.776750	0.585820	0.836880
Co21	Co2	0.800550	0.085820	0.336880
Co31	Co3	0.223250	0.414180	0.163120
Co41	Co4	0.199450	0.914180	0.663120
H11	H1	0.458800	0.303300	0.962500
H21	H2	0.492700	0.824100	0.862300
H31	H3	0.367900	0.550900	0.846900
H41	H4	0.891900	0.420900	0.310900
H51	H5	0.358500	0.596800	0.918000
H61	H6	0.765700	0.949100	0.653100
H71	H7	0.716300	0.499200	0.071800
H81	H8	0.006400	0.682600	0.634400
H91	H9	0.126700	0.096800	0.418000
H101	H10	0.873300	0.903200	0.582000
H111	H11	0.724600	0.196700	0.537500
H121	H12	0.275400	0.803300	0.462500
H131	H13	0.641500	0.403200	0.082000
H141	H14	0.287300	0.000800	0.428200
H151	H15	0.376300	0.920900	0.810900
H161	H16	0.507300	0.175900	0.137700
H171	H17	0.283700	0.500800	0.928200
H181	H18	0.820900	0.324100	0.362300
H191	H19	0.108100	0.579100	0.689100
H201	H20	0.632100	0.449100	0.153100
H211	H21	0.993600	0.317400	0.365600
H221	H22	0.676600	0.182600	0.134400
H231	H23	0.234300	0.050900	0.346900
H241	H24	0.623700	0.079100	0.189100
H251	H25	0.712700	0.999200	0.571800
H261	H26	0.541200	0.696700	0.037500
H271	H27	0.323400	0.817400	0.865600
H281	H28	0.179100	0.675900	0.637700
C11	C1	0.381200	0.341400	0.296800
C21	C2	0.019400	0.158600	0.203200
C31	C3	0.520700	0.444800	0.918000
C41	C4	0.473600	0.779600	0.769600
C51	C5	0.198300	0.030900	0.401300
C61	C6	0.056300	0.139700	0.571100
C71	C7	0.526400	0.220400	0.230400
C81	C8	0.618800	0.658600	0.703200
C91	C9	0.692300	0.277300	0.956500
C101	C10	0.067800	0.639100	0.077500
C111	C11	0.253100	0.847800	0.020600
C121	C12	0.997500	0.060900	0.187700
C131	C13	0.893400	0.766900	0.836300
C141	C14	0.630500	0.469100	0.098700
C151	C15	0.084700	0.658900	0.667300
C161	C16	0.943700	0.860300	0.428900
C171	C17	0.883500	0.055200	0.582000
C181	C18	0.022800	0.720400	0.730400
C191	C19	0.442300	0.741000	0.592800
C201	C20	0.915300	0.341100	0.332700
C211	C21	0.121500	0.652200	0.479400
C221	C22	0.926100	0.222700	0.543500
C231	C23	0.784400	0.860900	0.422500
C241	C24	0.073900	0.777300	0.456500
C251	C25	0.116500	0.944800	0.418000
C261	C26	0.307700	0.722700	0.043500
C271	C27	0.479300	0.555200	0.082000
C281	C28	0.369500	0.530900	0.901300
C291	C29	0.557700	0.259000	0.407200
C301	C30	0.776100	0.759000	0.907200
C311	C31	0.801700	0.969100	0.598700
C321	C32	0.980600	0.841400	0.796800
C331	C33	0.223900	0.241000	0.092800
C341	C34	0.878500	0.347800	0.520600
C351	C35	0.932200	0.360900	0.922500
C361	C36	0.215600	0.139100	0.577500
C371	C37	0.977200	0.279600	0.269600
C381	C38	0.246100	0.439100	0.312300
C391	C39	0.496600	0.733100	0.663700
C401	C40	0.503400	0.266900	0.336300
C411	C41	0.232900	0.639700	0.071100
C421	C42	0.767100	0.360300	0.928900
C431	C43	0.589100	0.158900	0.167300
C441	C44	0.410900	0.841100	0.832700
C451	C45	0.753900	0.560900	0.687700
C461	C46	0.106600	0.233100	0.163700
C471	C47	0.002500	0.939100	0.812300
C481	C48	0.746900	0.152200	0.979400
N11	N1	0.026300	0.037300	0.596100
N21	N2	0.078100	0.309000	0.207400
N31	N3	0.063000	0.809400	0.730600
N41	N4	0.603000	0.690600	0.769400
N51	N5	0.180700	0.834300	0.449100
N61	N6	0.464100	0.665700	0.050900
N71	N7	0.659700	0.462700	0.903900
N81	N8	0.937000	0.190600	0.269400
N91	N9	0.921900	0.691000	0.792600
N101	N10	0.340300	0.537300	0.096100
N111	N11	0.405500	0.809000	0.707400
N121	N12	0.973700	0.962700	0.403900
N131	N13	0.819300	0.165700	0.550900
N141	N14	0.594500	0.191000	0.292600
N151	N15	0.397000	0.309400	0.230600
N161	N16	0.535900	0.334300	0.949100
O11	O1	0.833700	0.505000	0.740800
O21	O2	0.031000	0.275100	0.955900
O31	O3	0.079500	0.995000	0.759200
O41	O4	0.920500	0.005000	0.240800
O51	O5	0.979000	0.400900	0.504900
O61	O6	0.166300	0.495000	0.259200
O71	O7	0.487000	0.333300	0.446100
O81	O8	0.788800	0.534400	0.622400
O91	O9	0.734700	0.401100	0.518500
O101	O10	0.513000	0.666700	0.553900
O111	O11	0.678000	0.178700	0.425100
O121	O12	0.281800	0.321300	0.074900
O131	O13	0.211200	0.465600	0.377600
O141	O14	0.036700	0.550300	0.115300
O151	O15	0.297700	0.050300	0.615300
O161	O16	0.262000	0.224900	0.544100
O171	O17	0.718200	0.678700	0.925100
O181	O18	0.733600	0.833300	0.946100
O191	O19	0.115200	0.900900	0.004900
O201	O20	0.884800	0.099100	0.995100
O211	O21	0.021000	0.599100	0.495100
O221	O22	0.322000	0.821300	0.574900
O231	O23	0.054400	0.034400	0.122400
O241	O24	0.963300	0.449700	0.884700
O251	O25	0.969000	0.724900	0.044100
O261	O26	0.702300	0.949700	0.384700
O271	O27	0.738000	0.775100	0.455900
O281	O28	0.265300	0.598900	0.481500
O291	O29	0.345700	0.901100	0.018500
O301	O30	0.654300	0.098900	0.981500
O311	O31	0.266400	0.166700	0.053900
O321	O32	0.945600	0.965600	0.877600
