data_ZOYKEF_clean_PM
_symmetry_space_group_name_H-M	'P1'
_cell_length_a	9.730000
_cell_length_b	11.755000
_cell_length_c	12.509000
_cell_angle_alpha	62.698000
_cell_angle_beta	71.906000
_cell_angle_gamma	75.299000
_symmetry_Int_Tables_number 1

loop_
_symmetry_equiv_pos_as_xyz
'x,y,z'

loop_
_atom_site_label
_atom_site_type_symbol
_atom_site_fract_x
_atom_site_fract_y
_atom_site_fract_z
Mn11	Mn1	0.913540	0.831950	0.861950
O11	O1	0.691000	0.811000	0.891600
O21	O2	0.791500	0.619700	0.002700
O31	O3	0.141700	0.870500	0.913700
O41	O4	0.062100	0.686800	0.972000
O51	O5	0.896100	0.025200	0.749500
O61	O6	0.945100	0.141400	0.829700
O71	O7	0.990400	0.219700	0.288600
O81	O8	0.954400	0.435900	0.192600
O91	O9	0.365100	0.368800	0.273500
H11	H1	0.443000	0.321900	0.281200
O101	O10	0.790100	0.599600	0.514200
H21	H2	0.745100	0.596100	0.582800
C11	C1	0.682000	0.696100	0.968300
C21	C2	0.156200	0.749600	0.965800
C31	C3	0.911500	0.128900	0.746700
C41	C4	0.956800	0.330200	0.287500
C51	C5	0.536300	0.648900	0.023300
C61	C6	0.521800	0.529000	0.122900
H31	H3	0.601800	0.480000	0.156200
C71	C7	0.388500	0.483100	0.172300
C81	C8	0.269500	0.554600	0.119700
H41	H4	0.181100	0.521700	0.150400
C91	C9	0.283600	0.674900	0.021300
C101	C10	0.416200	0.723900	0.973900
H51	H5	0.424700	0.805700	0.910000
C111	C11	0.893400	0.247100	0.629200
C121	C12	0.921400	0.232500	0.519700
H61	H6	0.944000	0.150500	0.520200
C131	C13	0.915500	0.341600	0.409200
C141	C14	0.874600	0.462900	0.410500
H71	H7	0.873000	0.535800	0.336500
C151	C15	0.836000	0.476800	0.520500
C161	C16	0.849400	0.368000	0.631100
H81	H8	0.829000	0.376900	0.704800
Mn21	Mn2	0.086460	0.168050	0.138050
O111	O11	0.309000	0.189000	0.108400
O121	O12	0.208500	0.380300	0.997300
O131	O13	0.858300	0.129500	0.086300
O141	O14	0.937900	0.313200	0.028000
O151	O15	0.103900	0.974800	0.250500
O161	O16	0.054900	0.858600	0.170300
O171	O17	0.009600	0.780300	0.711400
O181	O18	0.045600	0.564100	0.807400
O191	O19	0.634900	0.631200	0.726500
H91	H9	0.557000	0.678100	0.718800
O201	O20	0.209900	0.400400	0.485800
H101	H10	0.254900	0.403900	0.417200
C171	C17	0.318000	0.303900	0.031700
C181	C18	0.843800	0.250400	0.034200
C191	C19	0.088500	0.871100	0.253300
C201	C20	0.043200	0.669800	0.712500
C211	C21	0.463700	0.351100	0.976700
C221	C22	0.478200	0.471000	0.877100
H111	H11	0.398200	0.520000	0.843800
C231	C23	0.611500	0.516900	0.827700
C241	C24	0.730500	0.445400	0.880300
H121	H12	0.818900	0.478300	0.849600
C251	C25	0.716400	0.325100	0.978700
C261	C26	0.583800	0.276100	0.026100
H131	H13	0.575300	0.194300	0.090000
C271	C27	0.106600	0.752900	0.370800
C281	C28	0.078600	0.767500	0.480300
H141	H14	0.056000	0.849500	0.479800
C291	C29	0.084500	0.658400	0.590800
C301	C30	0.125400	0.537100	0.589500
H151	H15	0.127000	0.464200	0.663500
C311	C31	0.164000	0.523200	0.479500
C321	C32	0.150600	0.632000	0.368900
H161	H16	0.171000	0.623100	0.295200
Mn31	Mn3	0.000000	0.500000	0.000000
Mn41	Mn4	0.000000	0.000000	0.000000
