data_ZOZCIC_clean_PM
_symmetry_space_group_name_H-M	'P1'
_cell_length_a	12.333100
_cell_length_b	14.738800
_cell_length_c	14.994600
_cell_angle_alpha	111.546000
_cell_angle_beta	105.075000
_cell_angle_gamma	106.267000
_symmetry_Int_Tables_number 1

loop_
_symmetry_equiv_pos_as_xyz
'x,y,z'

loop_
_atom_site_label
_atom_site_type_symbol
_atom_site_fract_x
_atom_site_fract_y
_atom_site_fract_z
U11	U1	0.445230	0.033420	0.452410
U21	U2	0.659230	0.796010	0.867800
U31	U3	0.690150	0.455130	0.203020
U41	U4	0.137370	0.684600	0.808290
O11	O1	0.603500	0.169900	0.431500
O21	O2	0.591200	0.006000	0.376300
O31	O3	0.658700	0.873200	0.044600
O41	O4	0.755800	0.990500	0.003900
O51	O5	0.433400	0.846500	0.400000
O61	O6	0.305000	0.889800	0.465800
O71	O7	0.141300	0.568500	0.642900
O81	O8	0.235900	0.741800	0.704100
O91	O9	0.304500	0.089200	0.525000
O101	O10	0.449200	0.216000	0.526100
O111	O11	0.558100	0.600500	0.754900
O121	O12	0.531600	0.654700	0.901700
O131	O13	0.772800	0.911000	0.810400
O141	O14	0.684400	0.738200	0.702700
O151	O15	0.831100	0.654400	0.314300
O161	O16	0.694800	0.578700	0.364200
O171	O17	0.530500	0.373900	0.255400
O181	O18	0.540500	0.267600	0.113500
O191	O19	0.234900	0.881400	0.888700
O201	O20	0.149900	0.816000	0.973600
O211	O21	0.030200	0.612200	0.898300
O221	O22	0.018900	0.492500	0.753700
O231	O23	0.702300	0.337200	0.043900
O241	O24	0.836700	0.505700	0.124100
C11	C1	0.739800	0.122600	0.347700
C21	C2	0.684500	0.041600	0.231300
H11	H1	0.614300	0.051800	0.192900
H21	H2	0.652700	0.967800	0.222300
C31	C3	0.781400	0.055700	0.185800
C41	C4	0.830200	0.169500	0.199400
H31	H3	0.762000	0.181300	0.160500
H41	H4	0.894000	0.179300	0.170800
C51	C5	0.886100	0.250500	0.316500
H51	H5	0.916500	0.324900	0.325000
C61	C6	0.789900	0.236300	0.361200
H61	H6	0.721300	0.249300	0.324700
H71	H7	0.827000	0.289200	0.436600
C71	C7	0.846200	0.104200	0.407000
H81	H8	0.815200	0.030100	0.397400
H91	H9	0.881500	0.155000	0.483000
C81	C8	0.948000	0.122000	0.363000
H101	H10	0.018100	0.110800	0.401800
C91	C9	0.890000	0.037800	0.245500
H111	H11	0.859300	0.964500	0.237800
H121	H12	0.953000	0.045400	0.216000
C101	C10	0.996500	0.234900	0.375900
H131	H13	0.059700	0.244500	0.346700
H141	H14	0.035000	0.288500	0.451200
C111	C11	0.638800	0.098700	0.387100
C121	C12	0.729200	0.970800	0.072300
C131	C13	0.298700	0.715300	0.430100
C141	C14	0.280900	0.734500	0.533500
H151	H15	0.362100	0.779200	0.594000
H161	H16	0.228000	0.774000	0.541700
C151	C15	0.220600	0.627300	0.532500
C161	C16	0.094200	0.558900	0.439500
H171	H17	0.039800	0.597000	0.446900
H181	H18	0.054900	0.490000	0.438700
C171	C17	0.109700	0.537100	0.335800
H191	H19	0.027200	0.490900	0.275200
C181	C18	0.167200	0.645800	0.336900
H201	H20	0.113500	0.684300	0.345900
H211	H21	0.174400	0.633000	0.269600
C191	C19	0.377900	0.654800	0.417600
H221	H22	0.461200	0.699000	0.475600
H231	H23	0.387200	0.640300	0.350700
C201	C20	0.320700	0.549300	0.418000
H241	H24	0.376000	0.511400	0.410300
C211	C21	0.304800	0.567100	0.520300
H251	H25	0.386300	0.610000	0.580700
H261	H26	0.266900	0.497200	0.518200
C221	C22	0.196800	0.480000	0.325300
H271	H27	0.160100	0.409700	0.322800
H281	H28	0.207900	0.467200	0.259300
C231	C23	0.350400	0.823000	0.431800
C241	C24	0.200700	0.647400	0.631400
C251	C25	0.365400	0.268000	0.655800
C261	C26	0.440700	0.384900	0.685900
H291	H29	0.406600	0.399400	0.627700
H301	H30	0.527500	0.396900	0.697600
C271	C27	0.437200	0.462400	0.786100
C281	C28	0.492200	0.439500	0.876800
H311	H31	0.580000	0.454200	0.891200
H321	H32	0.488400	0.487800	0.941300
C291	C29	0.420100	0.322600	0.847600
H331	H33	0.457200	0.308500	0.906100
C301	C30	0.421200	0.246900	0.748000
H341	H34	0.372600	0.171800	0.730000
H351	H35	0.507200	0.256500	0.759000
C311	C31	0.232500	0.250700	0.642900
H361	H36	0.193000	0.262400	0.584100
H371	H37	0.184800	0.175500	0.625000
C321	C32	0.228500	0.326500	0.742400
H381	H38	0.141000	0.314600	0.730800
C331	C33	0.304200	0.442800	0.769400
H391	H39	0.266600	0.456600	0.711700
H401	H40	0.302500	0.493200	0.834000
C341	C34	0.284500	0.305600	0.831000
H411	H41	0.235400	0.231100	0.814100
H421	H42	0.283200	0.355200	0.896300
C351	C35	0.367400	0.187000	0.561900
C361	C36	0.513300	0.578100	0.814900
C371	C37	0.797700	0.852800	0.646200
C381	C38	0.767000	0.746100	0.552900
H431	H43	0.804700	0.704500	0.578400
H441	H44	0.676300	0.703500	0.517400
C391	C39	0.815400	0.765700	0.475000
C401	C40	0.752800	0.831000	0.435400
H451	H45	0.782900	0.844700	0.384500
H461	H46	0.662100	0.788600	0.399400
C411	C41	0.783700	0.937800	0.528300
H471	H47	0.743600	0.979100	0.502900
C421	C42	0.736900	0.916300	0.607900
H481	H48	0.757200	0.985300	0.668200
H491	H49	0.646000	0.875100	0.574100
C431	C43	0.937600	0.919400	0.701500
H501	H50	0.978400	0.879900	0.728100
H511	H51	0.957600	0.988300	0.761900
C441	C44	0.984100	0.940600	0.622200
H521	H52	0.075600	0.984300	0.658600
C451	C45	0.958100	0.834500	0.531000
H531	H53	0.999800	0.795500	0.557600
H541	H54	0.990000	0.848400	0.481000
C461	C46	0.925300	0.003600	0.583700
H551	H55	0.957200	0.018400	0.534000
H561	H56	0.946000	0.073100	0.643600
C471	C47	0.748300	0.832700	0.722800
C481	C48	0.779600	0.662700	0.381100
C491	C49	0.353900	0.201300	0.139000
C501	C50	0.342000	0.087600	0.072000
H571	H57	0.363200	0.085000	0.012100
H581	H58	0.400500	0.070400	0.115000
C511	C51	0.212400	0.006500	0.032100
C521	C52	0.122400	0.033200	0.967800
H591	H59	0.036900	0.980200	0.942800
H601	H60	0.139100	0.029400	0.905700
C531	C53	0.135600	0.147100	0.035300
H611	H61	0.075900	0.164300	0.992300
C541	C54	0.264700	0.228500	0.073900
H621	H62	0.272500	0.301300	0.117000
H631	H63	0.284200	0.227400	0.013500
C551	C55	0.326600	0.204200	0.234400
H641	H64	0.386000	0.187100	0.276600
H651	H65	0.335300	0.276800	0.279400
C561	C56	0.193600	0.120800	0.194500
H661	H66	0.173600	0.123100	0.255600
C571	C57	0.178000	0.007100	0.125300
H671	H67	0.091500	0.955000	0.098200
H681	H68	0.232700	0.986200	0.167100
C581	C58	0.104900	0.148100	0.128700
H691	H69	0.111000	0.220100	0.172600
H701	H70	0.019000	0.095200	0.102500
C591	C59	0.482400	0.284100	0.173000
C601	C60	0.199600	0.896500	0.962900
C611	C61	0.954300	0.428100	0.866300
C621	C62	0.890300	0.461200	0.941100
H711	H71	0.947300	0.531800	0.003000
H721	H72	0.815800	0.467700	0.904500
C631	C63	0.853700	0.375600	0.976500
C641	C64	0.968800	0.368800	0.035700
H731	H73	0.946200	0.315600	0.060700
H741	H74	0.026000	0.439500	0.097500
C651	C65	0.033000	0.334200	0.959800
H751	H75	0.108200	0.328100	0.997700
C661	C66	0.071900	0.419200	0.925800
H761	H76	0.114600	0.399000	0.879200
H771	H77	0.129700	0.489300	0.988000
C671	C67	0.866900	0.319800	0.771200
H781	H78	0.792100	0.324600	0.732600
H791	H79	0.907900	0.299000	0.723300
C681	C68	0.830500	0.235800	0.805700
H801	H80	0.772100	0.164900	0.743000
C691	C69	0.768600	0.268200	0.879900
H811	H81	0.692700	0.272600	0.842800
H821	H82	0.744100	0.212500	0.901700
C701	C70	0.944600	0.225800	0.865800
H831	H83	0.919000	0.171900	0.889400
H841	H84	0.986000	0.201700	0.819100
C711	C71	0.001400	0.513100	0.835200
C721	C72	0.793400	0.408000	0.051500
