data_ZOZKEG_clean_PM
_symmetry_space_group_name_H-M	'P1'
_cell_length_a	23.604000
_cell_length_b	41.954000
_cell_length_c	11.675000
_cell_angle_alpha	90.000000
_cell_angle_beta	116.908000
_cell_angle_gamma	90.000000
_symmetry_Int_Tables_number 1

loop_
_symmetry_equiv_pos_as_xyz
'x,y,z'

loop_
_atom_site_label
_atom_site_type_symbol
_atom_site_fract_x
_atom_site_fract_y
_atom_site_fract_z
Mn11	Mn1	0.822810	0.122880	0.513200
Mn21	Mn2	0.910770	0.149290	0.832680
Mn31	Mn3	0.821580	0.171620	0.014430
Mn41	Mn4	0.731490	0.146060	0.186110
S11	S1	0.008000	0.278820	0.375400
S21	S2	0.072600	0.959470	0.820100
S31	S3	0.572700	0.041460	0.710010
S41	S4	0.452950	0.149490	0.368300
S51	S5	0.705890	0.352540	0.129900
O11	O1	0.884300	0.163150	0.583800
O21	O2	0.972800	0.168300	0.758900
O31	O3	0.896800	0.090820	0.614400
O41	O4	0.939700	0.101520	0.824600
O51	O5	0.805400	0.128240	0.680100
O61	O6	0.831950	0.133490	0.885100
O71	O7	0.723100	0.169460	0.906500
O81	O8	0.666000	0.145800	0.992300
O91	O9	0.813100	0.203950	0.147300
O101	O10	0.736100	0.195120	0.200400
O111	O11	0.119400	0.209900	0.996500
O121	O12	0.203100	0.213100	0.174700
H11	H1	0.219100	0.204000	0.134000
O131	O13	0.838600	0.872860	0.843300
O141	O14	0.811300	0.868200	0.638200
O151	O15	0.702100	0.899700	0.707500
O161	O16	0.754300	0.912640	0.916900
O171	O17	0.372200	0.303640	0.296300
O181	O18	0.326300	0.287650	0.411700
O191	O19	0.475800	0.345930	0.525500
O201	O20	0.421100	0.331110	0.630900
O211	O21	0.948900	0.291290	0.277400
O221	O22	0.052800	0.299840	0.475300
O231	O23	0.121100	0.957410	0.949300
O241	O24	0.088600	0.954160	0.715300
O251	O25	0.557600	0.048000	0.813300
O261	O26	0.523400	0.043260	0.578800
O271	O27	0.407200	0.127130	0.369100
O281	O28	0.477100	0.147000	0.273000
O291	O29	0.755800	0.370830	0.110100
O301	O30	0.687100	0.362140	0.225600
C11	C1	0.934900	0.175640	0.636200
C21	C2	0.144600	0.215000	0.107400
C31	C3	0.935900	0.229600	0.386900
H21	H2	0.910500	0.233200	0.299800
C41	C4	0.919800	0.206780	0.449600
H31	H3	0.882600	0.195200	0.404400
C51	C5	0.957400	0.200140	0.579700
C61	C6	0.013400	0.216650	0.644400
H41	H4	0.040700	0.211700	0.729500
C71	C7	0.028700	0.240490	0.582200
H51	H5	0.065600	0.252300	0.627200
C81	C8	0.990000	0.247290	0.453300
C91	C9	0.046700	0.233600	0.117200
H61	H6	0.023300	0.224800	0.036100
C101	C10	0.017300	0.247300	0.181800
H71	H7	0.973100	0.247800	0.143900
C111	C11	0.051300	0.260300	0.301600
C121	C12	0.115100	0.260100	0.364500
H81	H8	0.137500	0.268600	0.446600
C131	C13	0.145700	0.246400	0.298400
H91	H9	0.189800	0.246000	0.337500
C141	C14	0.112000	0.233200	0.174800
C151	C15	0.850100	0.878150	0.751500
C161	C16	0.933300	0.084920	0.732100
C171	C17	0.043600	0.016120	0.899800
H101	H10	0.070100	0.009300	0.982900
C181	C18	0.012000	0.043780	0.880400
H111	H11	0.016800	0.056000	0.950700
C191	C19	0.971500	0.054630	0.755400
C201	C20	0.998000	0.007790	0.674000
H121	H12	0.993500	0.995300	0.604400
C211	C21	0.036700	0.998230	0.798200
C221	C22	0.967100	0.035480	0.656400
H131	H13	0.941300	0.042100	0.572700
C231	C23	0.950900	0.906480	0.890900
H141	H14	0.946000	0.900200	0.962400
C241	C24	0.002500	0.925050	0.905800
H151	H15	0.032400	0.931600	0.987000
C251	C25	0.008300	0.933510	0.799300
C261	C26	0.965800	0.924540	0.676700
H161	H16	0.971300	0.930600	0.605800
C271	C27	0.915000	0.906240	0.663400
H171	H17	0.885700	0.899800	0.581600
C281	C28	0.905800	0.897120	0.766400
C291	C29	0.470000	0.339990	0.624800
C301	C30	0.795500	0.122930	0.775800
C311	C31	0.713500	0.917270	0.803900
C321	C32	0.679800	0.075180	0.846400
H181	H18	0.674700	0.068800	0.917500
C331	C33	0.732400	0.093270	0.864600
H191	H19	0.763000	0.098600	0.946800
C341	C34	0.738500	0.103370	0.755200
C351	C35	0.692300	0.095390	0.634800
H201	H20	0.695600	0.102700	0.562900
C361	C36	0.641200	0.076770	0.618600
H211	H21	0.610900	0.071100	0.536600
C371	C37	0.635200	0.066590	0.726100
C381	C38	0.633400	0.955800	0.652600
H221	H22	0.627800	0.942700	0.584000
C391	C39	0.600100	0.984830	0.630700
H231	H23	0.573100	0.991300	0.547400
C401	C40	0.608200	0.003930	0.735500
C411	C41	0.647300	0.994220	0.859800
H241	H24	0.651900	0.006900	0.928900
C421	C42	0.680100	0.965180	0.881500
H251	H25	0.705300	0.958200	0.965000
C431	C43	0.674500	0.946900	0.777400
C441	C44	0.672400	0.157180	0.900000
C451	C45	0.358400	0.282970	0.353500
C461	C46	0.444800	0.212960	0.306900
H261	H26	0.475600	0.209000	0.279600
C471	C47	0.423300	0.242510	0.305900
H271	H27	0.440400	0.259300	0.279500
C481	C48	0.375900	0.249090	0.343000
C491	C49	0.350800	0.224610	0.384000
H281	H28	0.319900	0.228600	0.410700
C501	C50	0.372900	0.193470	0.384500
H291	H29	0.355400	0.176400	0.408400
C511	C51	0.420000	0.188500	0.349800
C521	C52	0.562800	0.141050	0.748500
H301	H30	0.559500	0.133000	0.819500
C531	C53	0.510200	0.138200	0.624800
H311	H31	0.472500	0.128700	0.613600
C541	C54	0.517000	0.150050	0.523600
C551	C55	0.575300	0.164400	0.542300
H321	H32	0.581000	0.172000	0.473400
C561	C56	0.622000	0.166700	0.665000
H331	H33	0.659500	0.177000	0.679100
C571	C57	0.617000	0.155090	0.765000
C581	C58	0.770300	0.212530	0.174000
C591	C59	0.581300	0.342540	0.980500
H341	H34	0.580000	0.339700	0.058300
C601	C60	0.527200	0.338680	0.866900
H351	H35	0.489300	0.333000	0.867700
C611	C61	0.529000	0.343310	0.750300
C621	C62	0.586200	0.352400	0.753200
H361	H36	0.588300	0.356400	0.676900
C631	C63	0.639400	0.355400	0.868000
H371	H37	0.677900	0.361000	0.869400
C641	C64	0.636500	0.350450	0.978900
C651	C65	0.730000	0.312430	0.154600
C661	C66	0.718300	0.259370	0.217800
H381	H38	0.701000	0.245500	0.255600
C671	C67	0.703400	0.292090	0.207600
H391	H39	0.675500	0.299800	0.237200
C681	C68	0.773200	0.301220	0.116100
H401	H40	0.792100	0.315300	0.082200
C691	C69	0.788700	0.269970	0.126600
H411	H41	0.819600	0.262900	0.103900
C701	C70	0.758200	0.248250	0.171800
Mn51	Mn5	0.322810	0.622880	0.513200
Mn61	Mn6	0.410770	0.649290	0.832680
Mn71	Mn7	0.321580	0.671620	0.014430
Mn81	Mn8	0.231490	0.646060	0.186110
S61	S6	0.508000	0.778820	0.375400
S71	S7	0.572600	0.459470	0.820100
S81	S8	0.072700	0.541460	0.710010
S91	S9	0.952950	0.649490	0.368300
S101	S10	0.205890	0.852540	0.129900
O311	O31	0.384300	0.663150	0.583800
O321	O32	0.472800	0.668300	0.758900
O331	O33	0.396800	0.590820	0.614400
O341	O34	0.439700	0.601520	0.824600
O351	O35	0.305400	0.628240	0.680100
O361	O36	0.331950	0.633490	0.885100
O371	O37	0.223100	0.669460	0.906500
O381	O38	0.166000	0.645800	0.992300
O391	O39	0.313100	0.703950	0.147300
O401	O40	0.236100	0.695120	0.200400
O411	O41	0.619400	0.709900	0.996500
O421	O42	0.703100	0.713100	0.174700
H421	H42	0.719100	0.704000	0.134000
O431	O43	0.338600	0.372860	0.843300
O441	O44	0.311300	0.368200	0.638200
O451	O45	0.202100	0.399700	0.707500
O461	O46	0.254300	0.412640	0.916900
O471	O47	0.872200	0.803640	0.296300
O481	O48	0.826300	0.787650	0.411700
O491	O49	0.975800	0.845930	0.525500
O501	O50	0.921100	0.831110	0.630900
O511	O51	0.448900	0.791290	0.277400
O521	O52	0.552800	0.799840	0.475300
O531	O53	0.621100	0.457410	0.949300
O541	O54	0.588600	0.454160	0.715300
O551	O55	0.057600	0.548000	0.813300
O561	O56	0.023400	0.543260	0.578800
O571	O57	0.907200	0.627130	0.369100
O581	O58	0.977100	0.647000	0.273000
O591	O59	0.255800	0.870830	0.110100
O601	O60	0.187100	0.862140	0.225600
C711	C71	0.434900	0.675640	0.636200
C721	C72	0.644600	0.715000	0.107400
C731	C73	0.435900	0.729600	0.386900
H431	H43	0.410500	0.733200	0.299800
C741	C74	0.419800	0.706780	0.449600
H441	H44	0.382600	0.695200	0.404400
C751	C75	0.457400	0.700140	0.579700
C761	C76	0.513400	0.716650	0.644400
H451	H45	0.540700	0.711700	0.729500
C771	C77	0.528700	0.740490	0.582200
H461	H46	0.565600	0.752300	0.627200
C781	C78	0.490000	0.747290	0.453300
C791	C79	0.546700	0.733600	0.117200
H471	H47	0.523300	0.724800	0.036100
C801	C80	0.517300	0.747300	0.181800
H481	H48	0.473100	0.747800	0.143900
C811	C81	0.551300	0.760300	0.301600
C821	C82	0.615100	0.760100	0.364500
H491	H49	0.637500	0.768600	0.446600
C831	C83	0.645700	0.746400	0.298400
H501	H50	0.689800	0.746000	0.337500
C841	C84	0.612000	0.733200	0.174800
C851	C85	0.350100	0.378150	0.751500
C861	C86	0.433300	0.584920	0.732100
C871	C87	0.543600	0.516120	0.899800
H511	H51	0.570100	0.509300	0.982900
C881	C88	0.512000	0.543780	0.880400
H521	H52	0.516800	0.556000	0.950700
C891	C89	0.471500	0.554630	0.755400
C901	C90	0.498000	0.507790	0.674000
H531	H53	0.493500	0.495300	0.604400
C911	C91	0.536700	0.498230	0.798200
C921	C92	0.467100	0.535480	0.656400
H541	H54	0.441300	0.542100	0.572700
C931	C93	0.450900	0.406480	0.890900
H551	H55	0.446000	0.400200	0.962400
C941	C94	0.502500	0.425050	0.905800
H561	H56	0.532400	0.431600	0.987000
C951	C95	0.508300	0.433510	0.799300
C961	C96	0.465800	0.424540	0.676700
H571	H57	0.471300	0.430600	0.605800
C971	C97	0.415000	0.406240	0.663400
H581	H58	0.385700	0.399800	0.581600
C981	C98	0.405800	0.397120	0.766400
C991	C99	0.970000	0.839990	0.624800
C1001	C100	0.295500	0.622930	0.775800
C1011	C101	0.213500	0.417270	0.803900
C1021	C102	0.179800	0.575180	0.846400
H591	H59	0.174700	0.568800	0.917500
C1031	C103	0.232400	0.593270	0.864600
H601	H60	0.263000	0.598600	0.946800
C1041	C104	0.238500	0.603370	0.755200
C1051	C105	0.192300	0.595390	0.634800
H611	H61	0.195600	0.602700	0.562900
C1061	C106	0.141200	0.576770	0.618600
H621	H62	0.110900	0.571100	0.536600
C1071	C107	0.135200	0.566590	0.726100
C1081	C108	0.133400	0.455800	0.652600
H631	H63	0.127800	0.442700	0.584000
C1091	C109	0.100100	0.484830	0.630700
H641	H64	0.073100	0.491300	0.547400
C1101	C110	0.108200	0.503930	0.735500
C1111	C111	0.147300	0.494220	0.859800
H651	H65	0.151900	0.506900	0.928900
C1121	C112	0.180100	0.465180	0.881500
H661	H66	0.205300	0.458200	0.965000
C1131	C113	0.174500	0.446900	0.777400
C1141	C114	0.172400	0.657180	0.900000
C1151	C115	0.858400	0.782970	0.353500
C1161	C116	0.944800	0.712960	0.306900
H671	H67	0.975600	0.709000	0.279600
C1171	C117	0.923300	0.742510	0.305900
H681	H68	0.940400	0.759300	0.279500
C1181	C118	0.875900	0.749090	0.343000
C1191	C119	0.850800	0.724610	0.384000
H691	H69	0.819900	0.728600	0.410700
C1201	C120	0.872900	0.693470	0.384500
H701	H70	0.855400	0.676400	0.408400
C1211	C121	0.920000	0.688500	0.349800
C1221	C122	0.062800	0.641050	0.748500
H711	H71	0.059500	0.633000	0.819500
C1231	C123	0.010200	0.638200	0.624800
H721	H72	0.972500	0.628700	0.613600
C1241	C124	0.017000	0.650050	0.523600
C1251	C125	0.075300	0.664400	0.542300
H731	H73	0.081000	0.672000	0.473400
C1261	C126	0.122000	0.666700	0.665000
H741	H74	0.159500	0.677000	0.679100
C1271	C127	0.117000	0.655090	0.765000
C1281	C128	0.270300	0.712530	0.174000
C1291	C129	0.081300	0.842540	0.980500
H751	H75	0.080000	0.839700	0.058300
C1301	C130	0.027200	0.838680	0.866900
H761	H76	0.989300	0.833000	0.867700
C1311	C131	0.029000	0.843310	0.750300
C1321	C132	0.086200	0.852400	0.753200
H771	H77	0.088300	0.856400	0.676900
C1331	C133	0.139400	0.855400	0.868000
H781	H78	0.177900	0.861000	0.869400
C1341	C134	0.136500	0.850450	0.978900
C1351	C135	0.230000	0.812430	0.154600
C1361	C136	0.218300	0.759370	0.217800
H791	H79	0.201000	0.745500	0.255600
C1371	C137	0.203400	0.792090	0.207600
H801	H80	0.175500	0.799800	0.237200
C1381	C138	0.273200	0.801220	0.116100
H811	H81	0.292100	0.815300	0.082200
C1391	C139	0.288700	0.769970	0.126600
H821	H82	0.319600	0.762900	0.103900
C1401	C140	0.258200	0.748250	0.171800
Mn91	Mn9	0.822810	0.877120	0.013200
Mn101	Mn10	0.910770	0.850710	0.332680
Mn111	Mn11	0.821580	0.828380	0.514430
Mn121	Mn12	0.731490	0.853940	0.686110
S111	S11	0.008000	0.721180	0.875400
S121	S12	0.072600	0.040530	0.320100
S131	S13	0.572700	0.958540	0.210010
S141	S14	0.452950	0.850510	0.868300
S151	S15	0.705890	0.647460	0.629900
O611	O61	0.884300	0.836850	0.083800
O621	O62	0.972800	0.831700	0.258900
O631	O63	0.896800	0.909180	0.114400
O641	O64	0.939700	0.898480	0.324600
O651	O65	0.805400	0.871760	0.180100
O661	O66	0.831950	0.866510	0.385100
O671	O67	0.723100	0.830540	0.406500
O681	O68	0.666000	0.854200	0.492300
O691	O69	0.813100	0.796050	0.647300
O701	O70	0.736100	0.804880	0.700400
O711	O71	0.119400	0.790100	0.496500
O721	O72	0.203100	0.786900	0.674700
H831	H83	0.219100	0.796000	0.634000
O731	O73	0.838600	0.127140	0.343300
O741	O74	0.811300	0.131800	0.138200
O751	O75	0.702100	0.100300	0.207500
O761	O76	0.754300	0.087360	0.416900
O771	O77	0.372200	0.696360	0.796300
O781	O78	0.326300	0.712350	0.911700
O791	O79	0.475800	0.654070	0.025500
O801	O80	0.421100	0.668890	0.130900
O811	O81	0.948900	0.708710	0.777400
O821	O82	0.052800	0.700160	0.975300
O831	O83	0.121100	0.042590	0.449300
O841	O84	0.088600	0.045840	0.215300
O851	O85	0.557600	0.952000	0.313300
O861	O86	0.523400	0.956740	0.078800
O871	O87	0.407200	0.872870	0.869100
O881	O88	0.477100	0.853000	0.773000
O891	O89	0.755800	0.629170	0.610100
O901	O90	0.687100	0.637860	0.725600
C1411	C141	0.934900	0.824360	0.136200
C1421	C142	0.144600	0.785000	0.607400
C1431	C143	0.935900	0.770400	0.886900
H841	H84	0.910500	0.766800	0.799800
C1441	C144	0.919800	0.793220	0.949600
H851	H85	0.882600	0.804800	0.904400
C1451	C145	0.957400	0.799860	0.079700
C1461	C146	0.013400	0.783350	0.144400
H861	H86	0.040700	0.788300	0.229500
C1471	C147	0.028700	0.759510	0.082200
H871	H87	0.065600	0.747700	0.127200
C1481	C148	0.990000	0.752710	0.953300
C1491	C149	0.046700	0.766400	0.617200
H881	H88	0.023300	0.775200	0.536100
C1501	C150	0.017300	0.752700	0.681800
H891	H89	0.973100	0.752200	0.643900
C1511	C151	0.051300	0.739700	0.801600
C1521	C152	0.115100	0.739900	0.864500
H901	H90	0.137500	0.731400	0.946600
C1531	C153	0.145700	0.753600	0.798400
H911	H91	0.189800	0.754000	0.837500
C1541	C154	0.112000	0.766800	0.674800
C1551	C155	0.850100	0.121850	0.251500
C1561	C156	0.933300	0.915080	0.232100
C1571	C157	0.043600	0.983880	0.399800
H921	H92	0.070100	0.990700	0.482900
C1581	C158	0.012000	0.956220	0.380400
H931	H93	0.016800	0.944000	0.450700
C1591	C159	0.971500	0.945370	0.255400
C1601	C160	0.998000	0.992210	0.174000
H941	H94	0.993500	0.004700	0.104400
C1611	C161	0.036700	0.001770	0.298200
C1621	C162	0.967100	0.964520	0.156400
H951	H95	0.941300	0.957900	0.072700
C1631	C163	0.950900	0.093520	0.390900
H961	H96	0.946000	0.099800	0.462400
C1641	C164	0.002500	0.074950	0.405800
H971	H97	0.032400	0.068400	0.487000
C1651	C165	0.008300	0.066490	0.299300
C1661	C166	0.965800	0.075460	0.176700
H981	H98	0.971300	0.069400	0.105800
C1671	C167	0.915000	0.093760	0.163400
H991	H99	0.885700	0.100200	0.081600
C1681	C168	0.905800	0.102880	0.266400
C1691	C169	0.470000	0.660010	0.124800
C1701	C170	0.795500	0.877070	0.275800
C1711	C171	0.713500	0.082730	0.303900
C1721	C172	0.679800	0.924820	0.346400
H1001	H100	0.674700	0.931200	0.417500
C1731	C173	0.732400	0.906730	0.364600
H1011	H101	0.763000	0.901400	0.446800
C1741	C174	0.738500	0.896630	0.255200
C1751	C175	0.692300	0.904610	0.134800
H1021	H102	0.695600	0.897300	0.062900
C1761	C176	0.641200	0.923230	0.118600
H1031	H103	0.610900	0.928900	0.036600
C1771	C177	0.635200	0.933410	0.226100
C1781	C178	0.633400	0.044200	0.152600
H1041	H104	0.627800	0.057300	0.084000
C1791	C179	0.600100	0.015170	0.130700
H1051	H105	0.573100	0.008700	0.047400
C1801	C180	0.608200	0.996070	0.235500
C1811	C181	0.647300	0.005780	0.359800
H1061	H106	0.651900	0.993100	0.428900
C1821	C182	0.680100	0.034820	0.381500
H1071	H107	0.705300	0.041800	0.465000
C1831	C183	0.674500	0.053100	0.277400
C1841	C184	0.672400	0.842820	0.400000
C1851	C185	0.358400	0.717030	0.853500
C1861	C186	0.444800	0.787040	0.806900
H1081	H108	0.475600	0.791000	0.779600
C1871	C187	0.423300	0.757490	0.805900
H1091	H109	0.440400	0.740700	0.779500
C1881	C188	0.375900	0.750910	0.843000
C1891	C189	0.350800	0.775390	0.884000
H1101	H110	0.319900	0.771400	0.910700
C1901	C190	0.372900	0.806530	0.884500
H1111	H111	0.355400	0.823600	0.908400
C1911	C191	0.420000	0.811500	0.849800
C1921	C192	0.562800	0.858950	0.248500
H1121	H112	0.559500	0.867000	0.319500
C1931	C193	0.510200	0.861800	0.124800
H1131	H113	0.472500	0.871300	0.113600
C1941	C194	0.517000	0.849950	0.023600
C1951	C195	0.575300	0.835600	0.042300
H1141	H114	0.581000	0.828000	0.973400
C1961	C196	0.622000	0.833300	0.165000
H1151	H115	0.659500	0.823000	0.179100
C1971	C197	0.617000	0.844910	0.265000
C1981	C198	0.770300	0.787470	0.674000
C1991	C199	0.581300	0.657460	0.480500
H1161	H116	0.580000	0.660300	0.558300
C2001	C200	0.527200	0.661320	0.366900
H1171	H117	0.489300	0.667000	0.367700
C2011	C201	0.529000	0.656690	0.250300
C2021	C202	0.586200	0.647600	0.253200
H1181	H118	0.588300	0.643600	0.176900
C2031	C203	0.639400	0.644600	0.368000
H1191	H119	0.677900	0.639000	0.369400
C2041	C204	0.636500	0.649550	0.478900
C2051	C205	0.730000	0.687570	0.654600
C2061	C206	0.718300	0.740630	0.717800
H1201	H120	0.701000	0.754500	0.755600
C2071	C207	0.703400	0.707910	0.707600
H1211	H121	0.675500	0.700200	0.737200
C2081	C208	0.773200	0.698780	0.616100
H1221	H122	0.792100	0.684700	0.582200
C2091	C209	0.788700	0.730030	0.626600
H1231	H123	0.819600	0.737100	0.603900
C2101	C210	0.758200	0.751750	0.671800
Mn131	Mn13	0.322810	0.377120	0.013200
Mn141	Mn14	0.410770	0.350710	0.332680
Mn151	Mn15	0.321580	0.328380	0.514430
Mn161	Mn16	0.231490	0.353940	0.686110
S161	S16	0.508000	0.221180	0.875400
S171	S17	0.572600	0.540530	0.320100
S181	S18	0.072700	0.458540	0.210010
S191	S19	0.952950	0.350510	0.868300
S201	S20	0.205890	0.147460	0.629900
O911	O91	0.384300	0.336850	0.083800
O921	O92	0.472800	0.331700	0.258900
O931	O93	0.396800	0.409180	0.114400
O941	O94	0.439700	0.398480	0.324600
O951	O95	0.305400	0.371760	0.180100
O961	O96	0.331950	0.366510	0.385100
O971	O97	0.223100	0.330540	0.406500
O981	O98	0.166000	0.354200	0.492300
O991	O99	0.313100	0.296050	0.647300
O1001	O100	0.236100	0.304880	0.700400
O1011	O101	0.619400	0.290100	0.496500
O1021	O102	0.703100	0.286900	0.674700
H1241	H124	0.719100	0.296000	0.634000
O1031	O103	0.338600	0.627140	0.343300
O1041	O104	0.311300	0.631800	0.138200
O1051	O105	0.202100	0.600300	0.207500
O1061	O106	0.254300	0.587360	0.416900
O1071	O107	0.872200	0.196360	0.796300
O1081	O108	0.826300	0.212350	0.911700
O1091	O109	0.975800	0.154070	0.025500
O1101	O110	0.921100	0.168890	0.130900
O1111	O111	0.448900	0.208710	0.777400
O1121	O112	0.552800	0.200160	0.975300
O1131	O113	0.621100	0.542590	0.449300
O1141	O114	0.588600	0.545840	0.215300
O1151	O115	0.057600	0.452000	0.313300
O1161	O116	0.023400	0.456740	0.078800
O1171	O117	0.907200	0.372870	0.869100
O1181	O118	0.977100	0.353000	0.773000
O1191	O119	0.255800	0.129170	0.610100
O1201	O120	0.187100	0.137860	0.725600
C2111	C211	0.434900	0.324360	0.136200
C2121	C212	0.644600	0.285000	0.607400
C2131	C213	0.435900	0.270400	0.886900
H1251	H125	0.410500	0.266800	0.799800
C2141	C214	0.419800	0.293220	0.949600
H1261	H126	0.382600	0.304800	0.904400
C2151	C215	0.457400	0.299860	0.079700
C2161	C216	0.513400	0.283350	0.144400
H1271	H127	0.540700	0.288300	0.229500
C2171	C217	0.528700	0.259510	0.082200
H1281	H128	0.565600	0.247700	0.127200
C2181	C218	0.490000	0.252710	0.953300
C2191	C219	0.546700	0.266400	0.617200
H1291	H129	0.523300	0.275200	0.536100
C2201	C220	0.517300	0.252700	0.681800
H1301	H130	0.473100	0.252200	0.643900
C2211	C221	0.551300	0.239700	0.801600
C2221	C222	0.615100	0.239900	0.864500
H1311	H131	0.637500	0.231400	0.946600
C2231	C223	0.645700	0.253600	0.798400
H1321	H132	0.689800	0.254000	0.837500
C2241	C224	0.612000	0.266800	0.674800
C2251	C225	0.350100	0.621850	0.251500
C2261	C226	0.433300	0.415080	0.232100
C2271	C227	0.543600	0.483880	0.399800
H1331	H133	0.570100	0.490700	0.482900
C2281	C228	0.512000	0.456220	0.380400
H1341	H134	0.516800	0.444000	0.450700
C2291	C229	0.471500	0.445370	0.255400
C2301	C230	0.498000	0.492210	0.174000
H1351	H135	0.493500	0.504700	0.104400
C2311	C231	0.536700	0.501770	0.298200
C2321	C232	0.467100	0.464520	0.156400
H1361	H136	0.441300	0.457900	0.072700
C2331	C233	0.450900	0.593520	0.390900
H1371	H137	0.446000	0.599800	0.462400
C2341	C234	0.502500	0.574950	0.405800
H1381	H138	0.532400	0.568400	0.487000
C2351	C235	0.508300	0.566490	0.299300
C2361	C236	0.465800	0.575460	0.176700
H1391	H139	0.471300	0.569400	0.105800
C2371	C237	0.415000	0.593760	0.163400
H1401	H140	0.385700	0.600200	0.081600
C2381	C238	0.405800	0.602880	0.266400
C2391	C239	0.970000	0.160010	0.124800
C2401	C240	0.295500	0.377070	0.275800
C2411	C241	0.213500	0.582730	0.303900
C2421	C242	0.179800	0.424820	0.346400
H1411	H141	0.174700	0.431200	0.417500
C2431	C243	0.232400	0.406730	0.364600
H1421	H142	0.263000	0.401400	0.446800
C2441	C244	0.238500	0.396630	0.255200
C2451	C245	0.192300	0.404610	0.134800
H1431	H143	0.195600	0.397300	0.062900
C2461	C246	0.141200	0.423230	0.118600
H1441	H144	0.110900	0.428900	0.036600
C2471	C247	0.135200	0.433410	0.226100
C2481	C248	0.133400	0.544200	0.152600
H1451	H145	0.127800	0.557300	0.084000
C2491	C249	0.100100	0.515170	0.130700
H1461	H146	0.073100	0.508700	0.047400
C2501	C250	0.108200	0.496070	0.235500
C2511	C251	0.147300	0.505780	0.359800
H1471	H147	0.151900	0.493100	0.428900
C2521	C252	0.180100	0.534820	0.381500
H1481	H148	0.205300	0.541800	0.465000
C2531	C253	0.174500	0.553100	0.277400
C2541	C254	0.172400	0.342820	0.400000
C2551	C255	0.858400	0.217030	0.853500
C2561	C256	0.944800	0.287040	0.806900
H1491	H149	0.975600	0.291000	0.779600
C2571	C257	0.923300	0.257490	0.805900
H1501	H150	0.940400	0.240700	0.779500
C2581	C258	0.875900	0.250910	0.843000
C2591	C259	0.850800	0.275390	0.884000
H1511	H151	0.819900	0.271400	0.910700
C2601	C260	0.872900	0.306530	0.884500
H1521	H152	0.855400	0.323600	0.908400
C2611	C261	0.920000	0.311500	0.849800
C2621	C262	0.062800	0.358950	0.248500
H1531	H153	0.059500	0.367000	0.319500
C2631	C263	0.010200	0.361800	0.124800
H1541	H154	0.972500	0.371300	0.113600
C2641	C264	0.017000	0.349950	0.023600
C2651	C265	0.075300	0.335600	0.042300
H1551	H155	0.081000	0.328000	0.973400
C2661	C266	0.122000	0.333300	0.165000
H1561	H156	0.159500	0.323000	0.179100
C2671	C267	0.117000	0.344910	0.265000
C2681	C268	0.270300	0.287470	0.674000
C2691	C269	0.081300	0.157460	0.480500
H1571	H157	0.080000	0.160300	0.558300
C2701	C270	0.027200	0.161320	0.366900
H1581	H158	0.989300	0.167000	0.367700
C2711	C271	0.029000	0.156690	0.250300
C2721	C272	0.086200	0.147600	0.253200
H1591	H159	0.088300	0.143600	0.176900
C2731	C273	0.139400	0.144600	0.368000
H1601	H160	0.177900	0.139000	0.369400
C2741	C274	0.136500	0.149550	0.478900
C2751	C275	0.230000	0.187570	0.654600
C2761	C276	0.218300	0.240630	0.717800
H1611	H161	0.201000	0.254500	0.755600
C2771	C277	0.203400	0.207910	0.707600
H1621	H162	0.175500	0.200200	0.737200
C2781	C278	0.273200	0.198780	0.616100
H1631	H163	0.292100	0.184700	0.582200
C2791	C279	0.288700	0.230030	0.626600
H1641	H164	0.319600	0.237100	0.603900
C2801	C280	0.258200	0.251750	0.671800
