data_ZOZPUB_clean_PM
_symmetry_space_group_name_H-M	'P1'
_cell_length_a	14.443000
_cell_length_b	22.198700
_cell_length_c	17.762800
_cell_angle_alpha	90.000000
_cell_angle_beta	103.975000
_cell_angle_gamma	90.000000
_symmetry_Int_Tables_number 1

loop_
_symmetry_equiv_pos_as_xyz
'x,y,z'

loop_
_atom_site_label
_atom_site_type_symbol
_atom_site_fract_x
_atom_site_fract_y
_atom_site_fract_z
Co11	Co1	0.543850	0.059670	0.319160
Co21	Co2	0.499070	0.136540	0.472500
Co31	Co3	0.451280	0.103790	0.648440
O11	O1	0.555170	0.059810	0.433990
O21	O2	0.439440	0.075770	0.537940
O31	O3	0.080100	0.309380	0.918830
O41	O4	0.376200	0.183510	0.611150
N11	N1	0.583700	0.145560	0.643900
N21	N2	0.727800	0.181160	0.662900
O51	O5	0.115900	0.358630	0.819800
O61	O6	0.428900	0.209340	0.507300
O71	O7	0.737700	0.031330	0.526100
O81	O8	0.629830	0.008040	0.590840
N31	N3	0.768800	0.353930	0.770800
C11	C1	0.237200	0.071000	0.645600
H11	H1	0.215000	0.110400	0.636900
N41	N4	0.181900	0.022640	0.651600
N51	N5	0.909600	0.394960	0.805300
C21	C2	0.496300	0.304360	0.637100
C31	C3	0.823600	0.201360	0.701200
N61	N6	0.606000	0.151120	0.574200
C41	C4	0.400000	0.221500	0.566100
C51	C5	0.663900	0.325350	0.646700
H21	H2	0.715200	0.328300	0.623800
N71	N7	0.328300	0.992410	0.665100
C61	C6	0.573900	0.309900	0.602400
H31	H3	0.564800	0.303200	0.549500
C71	C7	0.892600	0.017200	0.657800
N81	N8	0.890500	0.366800	0.868800
C81	C8	0.713900	0.017700	0.587100
C91	C9	0.081700	0.022100	0.651700
N91	N9	0.325100	0.054640	0.653700
C101	C10	0.676100	0.336300	0.725300
C111	C11	0.847700	0.206200	0.780200
H41	H4	0.802600	0.199300	0.808800
C121	C12	0.601800	0.329800	0.760500
H51	H5	0.611200	0.336500	0.813500
C131	C13	0.242000	0.974500	0.663500
H61	H6	0.224200	0.934900	0.669600
C141	C14	0.008100	0.233300	0.775300
C151	C15	0.398100	0.287300	0.589500
H71	H7	0.380800	0.312500	0.543600
H81	H8	0.351200	0.293200	0.619800
C161	C16	0.835900	0.386600	0.746900
H91	H9	0.830400	0.400800	0.696700
C171	C17	0.658200	0.164400	0.696300
H101	H10	0.662100	0.166000	0.749300
C181	C18	0.109400	0.251400	0.817100
H111	H11	0.136800	0.221500	0.856100
H121	H12	0.149300	0.254400	0.780600
C191	C19	0.806100	0.342700	0.847100
H131	H13	0.775900	0.321000	0.879200
C201	C20	0.102600	0.312200	0.855200
C211	C21	0.940700	0.221700	0.817100
H141	H14	0.958100	0.224400	0.871000
C221	C22	0.929600	0.974400	0.616600
H151	H15	0.890100	0.943900	0.591100
C231	C23	0.046400	0.064800	0.692100
H161	H16	0.085400	0.095500	0.717500
C241	C24	0.511700	0.313100	0.715600
H171	H17	0.461600	0.307800	0.739500
C251	C25	0.692000	0.173100	0.586200
H181	H18	0.723700	0.181900	0.547700
C261	C26	0.950300	0.061700	0.695100
H191	H19	0.925900	0.090500	0.723100
C271	C27	0.981100	0.229400	0.696500
H201	H20	0.025500	0.237100	0.667400
C281	C28	0.789100	0.012400	0.663200
H211	H21	0.780800	0.973900	0.686500
H221	H22	0.777400	0.043600	0.698000
C291	C29	0.023800	0.975900	0.612400
H231	H23	0.048000	0.947000	0.584300
C301	C30	0.887300	0.213700	0.658500
H241	H24	0.869000	0.211900	0.604600
O91	O9	0.465760	0.975230	0.305690
H251	H25	0.380000	0.074000	0.521000
H261	H26	0.614000	0.062000	0.454000
H271	H27	0.429000	0.974000	0.261000
Co41	Co4	0.956150	0.559670	0.180840
Co51	Co5	0.000930	0.636540	0.027500
Co61	Co6	0.048720	0.603790	0.851560
O101	O10	0.944830	0.559810	0.066010
O111	O11	0.060560	0.575770	0.962060
O121	O12	0.419900	0.809380	0.581170
O131	O13	0.123800	0.683510	0.888850
N101	N10	0.916300	0.645560	0.856100
N111	N11	0.772200	0.681160	0.837100
O141	O14	0.384100	0.858630	0.680200
O151	O15	0.071100	0.709340	0.992700
O161	O16	0.762300	0.531330	0.973900
O171	O17	0.870170	0.508040	0.909160
N121	N12	0.731200	0.853930	0.729200
C311	C31	0.262800	0.571000	0.854400
H281	H28	0.285000	0.610400	0.863100
N131	N13	0.318100	0.522640	0.848400
N141	N14	0.590400	0.894960	0.694700
C321	C32	0.003700	0.804360	0.862900
C331	C33	0.676400	0.701360	0.798800
N151	N15	0.894000	0.651120	0.925800
C341	C34	0.100000	0.721500	0.933900
C351	C35	0.836100	0.825350	0.853300
H291	H29	0.784800	0.828300	0.876200
N161	N16	0.171700	0.492410	0.834900
C361	C36	0.926100	0.809900	0.897600
H301	H30	0.935200	0.803200	0.950500
C371	C37	0.607400	0.517200	0.842200
N171	N17	0.609500	0.866800	0.631200
C381	C38	0.786100	0.517700	0.912900
C391	C39	0.418300	0.522100	0.848300
N181	N18	0.174900	0.554640	0.846300
C401	C40	0.823900	0.836300	0.774700
C411	C41	0.652300	0.706200	0.719800
H311	H31	0.697400	0.699300	0.691200
C421	C42	0.898200	0.829800	0.739500
H321	H32	0.888800	0.836500	0.686500
C431	C43	0.258000	0.474500	0.836500
H331	H33	0.275800	0.434900	0.830400
C441	C44	0.491900	0.733300	0.724700
C451	C45	0.101900	0.787300	0.910500
H341	H34	0.119200	0.812500	0.956400
H351	H35	0.148800	0.793200	0.880200
C461	C46	0.664100	0.886600	0.753100
H361	H36	0.669600	0.900800	0.803300
C471	C47	0.841800	0.664400	0.803700
H371	H37	0.837900	0.666000	0.750700
C481	C48	0.390600	0.751400	0.682900
H381	H38	0.363200	0.721500	0.643900
H391	H39	0.350700	0.754400	0.719400
C491	C49	0.693900	0.842700	0.652900
H401	H40	0.724100	0.821000	0.620800
C501	C50	0.397400	0.812200	0.644800
C511	C51	0.559300	0.721700	0.682900
H411	H41	0.541900	0.724400	0.629000
C521	C52	0.570400	0.474400	0.883400
H421	H42	0.609900	0.443900	0.908900
C531	C53	0.453600	0.564800	0.807900
H431	H43	0.414600	0.595500	0.782500
C541	C54	0.988300	0.813100	0.784400
H441	H44	0.038400	0.807800	0.760500
C551	C55	0.808000	0.673100	0.913800
H451	H45	0.776300	0.681900	0.952300
C561	C56	0.549700	0.561700	0.804900
H461	H46	0.574100	0.590500	0.776900
C571	C57	0.518900	0.729400	0.803500
H471	H47	0.474500	0.737100	0.832600
C581	C58	0.710900	0.512400	0.836800
H481	H48	0.719200	0.473900	0.813500
H491	H49	0.722600	0.543600	0.802000
C591	C59	0.476200	0.475900	0.887600
H501	H50	0.452000	0.447000	0.915700
C601	C60	0.612700	0.713700	0.841500
H511	H51	0.631000	0.711900	0.895400
O181	O18	0.034240	0.475230	0.194310
H521	H52	0.120000	0.574000	0.979000
H531	H53	0.886000	0.562000	0.046000
H541	H54	0.071000	0.474000	0.239000
Co71	Co7	0.456150	0.940330	0.680840
Co81	Co8	0.500930	0.863460	0.527500
Co91	Co9	0.548720	0.896210	0.351560
O191	O19	0.444830	0.940190	0.566010
O201	O20	0.560560	0.924230	0.462060
O211	O21	0.919900	0.690620	0.081170
O221	O22	0.623800	0.816490	0.388850
N191	N19	0.416300	0.854440	0.356100
N201	N20	0.272200	0.818840	0.337100
O231	O23	0.884100	0.641370	0.180200
O241	O24	0.571100	0.790660	0.492700
O251	O25	0.262300	0.968670	0.473900
O261	O26	0.370170	0.991960	0.409160
N211	N21	0.231200	0.646070	0.229200
C611	C61	0.762800	0.929000	0.354400
H551	H55	0.785000	0.889600	0.363100
N221	N22	0.818100	0.977360	0.348400
N231	N23	0.090400	0.605040	0.194700
C621	C62	0.503700	0.695640	0.362900
C631	C63	0.176400	0.798640	0.298800
N241	N24	0.394000	0.848880	0.425800
C641	C64	0.600000	0.778500	0.433900
C651	C65	0.336100	0.674650	0.353300
H561	H56	0.284800	0.671700	0.376200
N251	N25	0.671700	0.007590	0.334900
C661	C66	0.426100	0.690100	0.397600
H571	H57	0.435200	0.696800	0.450500
C671	C67	0.107400	0.982800	0.342200
N261	N26	0.109500	0.633200	0.131200
C681	C68	0.286100	0.982300	0.412900
C691	C69	0.918300	0.977900	0.348300
N271	N27	0.674900	0.945360	0.346300
C701	C70	0.323900	0.663700	0.274700
C711	C71	0.152300	0.793800	0.219800
H581	H58	0.197400	0.800700	0.191200
C721	C72	0.398200	0.670200	0.239500
H591	H59	0.388800	0.663500	0.186500
C731	C73	0.758000	0.025500	0.336500
H601	H60	0.775800	0.065100	0.330400
C741	C74	0.991900	0.766700	0.224700
C751	C75	0.601900	0.712700	0.410500
H611	H61	0.619200	0.687500	0.456400
H621	H62	0.648800	0.706800	0.380200
C761	C76	0.164100	0.613400	0.253100
H631	H63	0.169600	0.599200	0.303300
C771	C77	0.341800	0.835600	0.303700
H641	H64	0.337900	0.834000	0.250700
C781	C78	0.890600	0.748600	0.182900
H651	H65	0.863200	0.778500	0.143900
H661	H66	0.850700	0.745600	0.219400
C791	C79	0.193900	0.657300	0.152900
H671	H67	0.224100	0.679000	0.120800
C801	C80	0.897400	0.687800	0.144800
C811	C81	0.059300	0.778300	0.182900
H681	H68	0.041900	0.775600	0.129000
C821	C82	0.070400	0.025600	0.383400
H691	H69	0.109900	0.056100	0.408900
C831	C83	0.953600	0.935200	0.307900
H701	H70	0.914600	0.904500	0.282500
C841	C84	0.488300	0.686900	0.284400
H711	H71	0.538400	0.692200	0.260500
C851	C85	0.308000	0.826900	0.413800
H721	H72	0.276300	0.818100	0.452300
C861	C86	0.049700	0.938300	0.304900
H731	H73	0.074100	0.909500	0.276900
C871	C87	0.018900	0.770600	0.303500
H741	H74	0.974500	0.762900	0.332600
C881	C88	0.210900	0.987600	0.336800
H751	H75	0.219200	0.026100	0.313500
H761	H76	0.222600	0.956400	0.302000
C891	C89	0.976200	0.024100	0.387600
H771	H77	0.952000	0.053000	0.415700
C901	C90	0.112700	0.786300	0.341500
H781	H78	0.131000	0.788100	0.395400
O271	O27	0.534240	0.024770	0.694310
H791	H79	0.620000	0.926000	0.479000
H801	H80	0.386000	0.938000	0.546000
H811	H81	0.571000	0.026000	0.739000
Co101	Co10	0.043850	0.440330	0.819160
Co111	Co11	0.999070	0.363460	0.972500
Co121	Co12	0.951280	0.396210	0.148440
O281	O28	0.055170	0.440190	0.933990
O291	O29	0.939440	0.424230	0.037940
O301	O30	0.580100	0.190620	0.418830
O311	O31	0.876200	0.316490	0.111150
N281	N28	0.083700	0.354440	0.143900
N291	N29	0.227800	0.318840	0.162900
O321	O32	0.615900	0.141370	0.319800
O331	O33	0.928900	0.290660	0.007300
O341	O34	0.237700	0.468670	0.026100
O351	O35	0.129830	0.491960	0.090840
N301	N30	0.268800	0.146070	0.270800
C911	C91	0.737200	0.429000	0.145600
H821	H82	0.715000	0.389600	0.136900
N311	N31	0.681900	0.477360	0.151600
N321	N32	0.409600	0.105040	0.305300
C921	C92	0.996300	0.195640	0.137100
C931	C93	0.323600	0.298640	0.201200
N331	N33	0.106000	0.348880	0.074200
C941	C94	0.900000	0.278500	0.066100
C951	C95	0.163900	0.174650	0.146700
H831	H83	0.215200	0.171700	0.123800
N341	N34	0.828300	0.507590	0.165100
C961	C96	0.073900	0.190100	0.102400
H841	H84	0.064800	0.196800	0.049500
C971	C97	0.392600	0.482800	0.157800
N351	N35	0.390500	0.133200	0.368800
C981	C98	0.213900	0.482300	0.087100
C991	C99	0.581700	0.477900	0.151700
N361	N36	0.825100	0.445360	0.153700
C1001	C100	0.176100	0.163700	0.225300
C1011	C101	0.347700	0.293800	0.280200
H851	H85	0.302600	0.300700	0.308800
C1021	C102	0.101800	0.170200	0.260500
H861	H86	0.111200	0.163500	0.313500
C1031	C103	0.742000	0.525500	0.163500
H871	H87	0.724200	0.565100	0.169600
C1041	C104	0.508100	0.266700	0.275300
C1051	C105	0.898100	0.212700	0.089500
H881	H88	0.880800	0.187500	0.043600
H891	H89	0.851200	0.206800	0.119800
C1061	C106	0.335900	0.113400	0.246900
H901	H90	0.330400	0.099200	0.196700
C1071	C107	0.158200	0.335600	0.196300
H911	H91	0.162100	0.334000	0.249300
C1081	C108	0.609400	0.248600	0.317100
H921	H92	0.636800	0.278500	0.356100
H931	H93	0.649300	0.245600	0.280600
C1091	C109	0.306100	0.157300	0.347100
H941	H94	0.275900	0.179000	0.379200
C1101	C110	0.602600	0.187800	0.355200
C1111	C111	0.440700	0.278300	0.317100
H951	H95	0.458100	0.275600	0.371000
C1121	C112	0.429600	0.525600	0.116600
H961	H96	0.390100	0.556100	0.091100
C1131	C113	0.546400	0.435200	0.192100
H971	H97	0.585400	0.404500	0.217500
C1141	C114	0.011700	0.186900	0.215600
H981	H98	0.961600	0.192200	0.239500
C1151	C115	0.192000	0.326900	0.086200
H991	H99	0.223700	0.318100	0.047700
C1161	C116	0.450300	0.438300	0.195100
H1001	H100	0.425900	0.409500	0.223100
C1171	C117	0.481100	0.270600	0.196500
H1011	H101	0.525500	0.262900	0.167400
C1181	C118	0.289100	0.487600	0.163200
H1021	H102	0.280800	0.526100	0.186500
H1031	H103	0.277400	0.456400	0.198000
C1191	C119	0.523800	0.524100	0.112400
H1041	H104	0.548000	0.553000	0.084300
C1201	C120	0.387300	0.286300	0.158500
H1051	H105	0.369000	0.288100	0.104600
O361	O36	0.965760	0.524770	0.805690
H1061	H106	0.880000	0.426000	0.021000
H1071	H107	0.114000	0.438000	0.954000
H1081	H108	0.929000	0.526000	0.761000
Co131	Co13	0.500000	0.000000	0.500000
Co141	Co14	0.000000	0.500000	0.000000
