data_ZOZSEO_clean_PM
_symmetry_space_group_name_H-M	'P1'
_cell_length_a	21.156000
_cell_length_b	8.726000
_cell_length_c	15.847000
_cell_angle_alpha	90.000000
_cell_angle_beta	90.000000
_cell_angle_gamma	90.000000
_symmetry_Int_Tables_number 1

loop_
_symmetry_equiv_pos_as_xyz
'x,y,z'

loop_
_atom_site_label
_atom_site_type_symbol
_atom_site_fract_x
_atom_site_fract_y
_atom_site_fract_z
O11	O1	0.983530	0.775500	0.875870
O21	O2	0.929140	0.903700	0.780630
C11	C1	0.941390	0.874100	0.857520
N11	N1	0.570520	0.571600	0.234780
N21	N2	0.746720	0.243700	0.109090
N31	N3	0.765650	0.229000	0.249860
C21	C2	0.906020	0.952400	0.926420
C31	C3	0.922070	0.926000	0.010440
H11	H1	0.955500	0.861000	0.023400
C41	C4	0.837650	0.091400	0.055530
C51	C5	0.798990	0.162300	0.121950
C61	C6	0.728220	0.281300	0.188750
C71	C7	0.855780	0.048400	0.907440
H21	H2	0.845100	0.067000	0.851400
C81	C8	0.672930	0.377000	0.205210
N41	N4	0.810790	0.153300	0.205010
H31	H3	0.842500	0.106100	0.226900
C91	C9	0.888380	0.996100	0.074680
H41	H4	0.899700	0.979400	0.130600
C101	C10	0.821350	0.116900	0.971800
H51	H5	0.787300	0.180000	0.958800
C111	C11	0.657200	0.422000	0.286440
H61	H6	0.680700	0.388300	0.332400
C121	C12	0.605790	0.518200	0.297920
H71	H7	0.595400	0.547100	0.352700
C131	C13	0.635620	0.430000	0.139470
H81	H8	0.644300	0.400800	0.084200
C141	C14	0.585560	0.526300	0.156470
H91	H9	0.561100	0.561300	0.111600
O31	O3	0.016470	0.775500	0.624130
O41	O4	0.070860	0.903700	0.719370
C151	C15	0.058610	0.874100	0.642480
N51	N5	0.429480	0.571600	0.265220
N61	N6	0.253280	0.243700	0.390910
N71	N7	0.234350	0.229000	0.250140
C161	C16	0.093980	0.952400	0.573580
C171	C17	0.077930	0.926000	0.489560
H101	H10	0.044500	0.861000	0.476600
C181	C18	0.162350	0.091400	0.444470
C191	C19	0.201010	0.162300	0.378050
C201	C20	0.271780	0.281300	0.311250
C211	C21	0.144220	0.048400	0.592560
H111	H11	0.154900	0.067000	0.648600
C221	C22	0.327070	0.377000	0.294790
N81	N8	0.189210	0.153300	0.294990
H121	H12	0.157500	0.106100	0.273100
C231	C23	0.111620	0.996100	0.425320
H131	H13	0.100300	0.979400	0.369400
C241	C24	0.178650	0.116900	0.528200
H141	H14	0.212700	0.180000	0.541200
C251	C25	0.342800	0.422000	0.213560
H151	H15	0.319300	0.388300	0.167600
C261	C26	0.394210	0.518200	0.202080
H161	H16	0.404600	0.547100	0.147300
C271	C27	0.364380	0.430000	0.360530
H171	H17	0.355700	0.400800	0.415800
C281	C28	0.414440	0.526300	0.343530
H181	H18	0.438900	0.561300	0.388400
O51	O5	0.483530	0.775500	0.124130
O61	O6	0.429140	0.903700	0.219370
C291	C29	0.441390	0.874100	0.142480
N91	N9	0.070520	0.571600	0.765220
N101	N10	0.246720	0.243700	0.890910
N111	N11	0.265650	0.229000	0.750140
C301	C30	0.406020	0.952400	0.073580
C311	C31	0.422070	0.926000	0.989560
H191	H19	0.455500	0.861000	0.976600
C321	C32	0.337650	0.091400	0.944470
C331	C33	0.298990	0.162300	0.878050
C341	C34	0.228220	0.281300	0.811250
C351	C35	0.355780	0.048400	0.092560
H201	H20	0.345100	0.067000	0.148600
C361	C36	0.172930	0.377000	0.794790
N121	N12	0.310790	0.153300	0.794990
H211	H21	0.342500	0.106100	0.773100
C371	C37	0.388380	0.996100	0.925320
H221	H22	0.399700	0.979400	0.869400
C381	C38	0.321350	0.116900	0.028200
H231	H23	0.287300	0.180000	0.041200
C391	C39	0.157200	0.422000	0.713560
H241	H24	0.180700	0.388300	0.667600
C401	C40	0.105790	0.518200	0.702080
H251	H25	0.095400	0.547100	0.647300
C411	C41	0.135620	0.430000	0.860530
H261	H26	0.144300	0.400800	0.915800
C421	C42	0.085560	0.526300	0.843530
H271	H27	0.061100	0.561300	0.888400
O71	O7	0.516470	0.775500	0.375870
O81	O8	0.570860	0.903700	0.280630
C431	C43	0.558610	0.874100	0.357520
N131	N13	0.929480	0.571600	0.734780
N141	N14	0.753280	0.243700	0.609090
N151	N15	0.734350	0.229000	0.749860
C441	C44	0.593980	0.952400	0.426420
C451	C45	0.577930	0.926000	0.510440
H281	H28	0.544500	0.861000	0.523400
C461	C46	0.662350	0.091400	0.555530
C471	C47	0.701010	0.162300	0.621950
C481	C48	0.771780	0.281300	0.688750
C491	C49	0.644220	0.048400	0.407440
H291	H29	0.654900	0.067000	0.351400
C501	C50	0.827070	0.377000	0.705210
N161	N16	0.689210	0.153300	0.705010
H301	H30	0.657500	0.106100	0.726900
C511	C51	0.611620	0.996100	0.574680
H311	H31	0.600300	0.979400	0.630600
C521	C52	0.678650	0.116900	0.471800
H321	H32	0.712700	0.180000	0.458800
C531	C53	0.842800	0.422000	0.786440
H331	H33	0.819300	0.388300	0.832400
C541	C54	0.894210	0.518200	0.797920
H341	H34	0.904600	0.547100	0.852700
C551	C55	0.864380	0.430000	0.639470
H351	H35	0.855700	0.400800	0.584200
C561	C56	0.914440	0.526300	0.656470
H361	H36	0.938900	0.561300	0.611600
Ni11	Ni1	0.500000	0.730250	0.250000
Ni21	Ni2	0.000000	0.730250	0.750000
O91	O9	0.516470	0.224500	0.875870
O101	O10	0.570860	0.096300	0.780630
C571	C57	0.558610	0.125900	0.857520
N171	N17	0.929480	0.428400	0.234780
N181	N18	0.753280	0.756300	0.109090
N191	N19	0.734350	0.771000	0.249860
C581	C58	0.593980	0.047600	0.926420
C591	C59	0.577930	0.074000	0.010440
H371	H37	0.544500	0.139000	0.023400
C601	C60	0.662350	0.908600	0.055530
C611	C61	0.701010	0.837700	0.121950
C621	C62	0.771780	0.718700	0.188750
C631	C63	0.644220	0.951600	0.907440
H381	H38	0.654900	0.933000	0.851400
C641	C64	0.827070	0.623000	0.205210
N201	N20	0.689210	0.846700	0.205010
H391	H39	0.657500	0.893900	0.226900
C651	C65	0.611620	0.003900	0.074680
H401	H40	0.600300	0.020600	0.130600
C661	C66	0.678650	0.883100	0.971800
H411	H41	0.712700	0.820000	0.958800
C671	C67	0.842800	0.578000	0.286440
H421	H42	0.819300	0.611700	0.332400
C681	C68	0.894210	0.481800	0.297920
H431	H43	0.904600	0.452900	0.352700
C691	C69	0.864380	0.570000	0.139470
H441	H44	0.855700	0.599200	0.084200
C701	C70	0.914440	0.473700	0.156470
H451	H45	0.938900	0.438700	0.111600
O111	O11	0.483530	0.224500	0.624130
O121	O12	0.429140	0.096300	0.719370
C711	C71	0.441390	0.125900	0.642480
N211	N21	0.070520	0.428400	0.265220
N221	N22	0.246720	0.756300	0.390910
N231	N23	0.265650	0.771000	0.250140
C721	C72	0.406020	0.047600	0.573580
C731	C73	0.422070	0.074000	0.489560
H461	H46	0.455500	0.139000	0.476600
C741	C74	0.337650	0.908600	0.444470
C751	C75	0.298990	0.837700	0.378050
C761	C76	0.228220	0.718700	0.311250
C771	C77	0.355780	0.951600	0.592560
H471	H47	0.345100	0.933000	0.648600
C781	C78	0.172930	0.623000	0.294790
N241	N24	0.310790	0.846700	0.294990
H481	H48	0.342500	0.893900	0.273100
C791	C79	0.388380	0.003900	0.425320
H491	H49	0.399700	0.020600	0.369400
C801	C80	0.321350	0.883100	0.528200
H501	H50	0.287300	0.820000	0.541200
C811	C81	0.157200	0.578000	0.213560
H511	H51	0.180700	0.611700	0.167600
C821	C82	0.105790	0.481800	0.202080
H521	H52	0.095400	0.452900	0.147300
C831	C83	0.135620	0.570000	0.360530
H531	H53	0.144300	0.599200	0.415800
C841	C84	0.085560	0.473700	0.343530
H541	H54	0.061100	0.438700	0.388400
O131	O13	0.016470	0.224500	0.124130
O141	O14	0.070860	0.096300	0.219370
C851	C85	0.058610	0.125900	0.142480
N251	N25	0.429480	0.428400	0.765220
N261	N26	0.253280	0.756300	0.890910
N271	N27	0.234350	0.771000	0.750140
C861	C86	0.093980	0.047600	0.073580
C871	C87	0.077930	0.074000	0.989560
H551	H55	0.044500	0.139000	0.976600
C881	C88	0.162350	0.908600	0.944470
C891	C89	0.201010	0.837700	0.878050
C901	C90	0.271780	0.718700	0.811250
C911	C91	0.144220	0.951600	0.092560
H561	H56	0.154900	0.933000	0.148600
C921	C92	0.327070	0.623000	0.794790
N281	N28	0.189210	0.846700	0.794990
H571	H57	0.157500	0.893900	0.773100
C931	C93	0.111620	0.003900	0.925320
H581	H58	0.100300	0.020600	0.869400
C941	C94	0.178650	0.883100	0.028200
H591	H59	0.212700	0.820000	0.041200
C951	C95	0.342800	0.578000	0.713560
H601	H60	0.319300	0.611700	0.667600
C961	C96	0.394210	0.481800	0.702080
H611	H61	0.404600	0.452900	0.647300
C971	C97	0.364380	0.570000	0.860530
H621	H62	0.355700	0.599200	0.915800
C981	C98	0.414440	0.473700	0.843530
H631	H63	0.438900	0.438700	0.888400
O151	O15	0.983530	0.224500	0.375870
O161	O16	0.929140	0.096300	0.280630
C991	C99	0.941390	0.125900	0.357520
N291	N29	0.570520	0.428400	0.734780
N301	N30	0.746720	0.756300	0.609090
N311	N31	0.765650	0.771000	0.749860
C1001	C100	0.906020	0.047600	0.426420
C1011	C101	0.922070	0.074000	0.510440
H641	H64	0.955500	0.139000	0.523400
C1021	C102	0.837650	0.908600	0.555530
C1031	C103	0.798990	0.837700	0.621950
C1041	C104	0.728220	0.718700	0.688750
C1051	C105	0.855780	0.951600	0.407440
H651	H65	0.845100	0.933000	0.351400
C1061	C106	0.672930	0.623000	0.705210
N321	N32	0.810790	0.846700	0.705010
H661	H66	0.842500	0.893900	0.726900
C1071	C107	0.888380	0.003900	0.574680
H671	H67	0.899700	0.020600	0.630600
C1081	C108	0.821350	0.883100	0.471800
H681	H68	0.787300	0.820000	0.458800
C1091	C109	0.657200	0.578000	0.786440
H691	H69	0.680700	0.611700	0.832400
C1101	C110	0.605790	0.481800	0.797920
H701	H70	0.595400	0.452900	0.852700
C1111	C111	0.635620	0.570000	0.639470
H711	H71	0.644300	0.599200	0.584200
C1121	C112	0.585560	0.473700	0.656470
H721	H72	0.561100	0.438700	0.611600
Ni31	Ni3	0.000000	0.269750	0.250000
Ni41	Ni4	0.500000	0.269750	0.750000
