data_ZUBCEG_clean_PM
_symmetry_space_group_name_H-M	'P1'
_cell_length_a	10.953900
_cell_length_b	17.449200
_cell_length_c	18.700000
_cell_angle_alpha	88.868000
_cell_angle_beta	86.160000
_cell_angle_gamma	76.462000
_symmetry_Int_Tables_number 1

loop_
_symmetry_equiv_pos_as_xyz
'x,y,z'

loop_
_atom_site_label
_atom_site_type_symbol
_atom_site_fract_x
_atom_site_fract_y
_atom_site_fract_z
Ba11	Ba1	0.401670	0.392940	0.490750
Ba21	Ba2	0.441300	0.464730	0.245640
Ba31	Ba3	0.142370	0.644610	0.032200
Ba41	Ba4	0.801560	0.096000	0.984440
Ba51	Ba5	0.113440	0.958740	0.260780
Ba61	Ba6	0.200440	0.177340	0.459780
Fe11	Fe1	0.108730	0.636000	0.365850
Fe21	Fe2	0.395480	0.320550	0.824030
Fe31	Fe3	0.263400	0.145000	0.127770
Fe41	Fe4	0.745370	0.142790	0.322000
O11	O1	0.219500	0.562000	0.431800
O21	O2	0.378000	0.555300	0.501300
O31	O3	0.219700	0.707200	0.392600
O41	O4	0.369700	0.711700	0.467400
O51	O5	0.973900	0.689400	0.438900
O61	O6	0.811700	0.667000	0.507100
O71	O7	0.993700	0.559300	0.366300
O81	O8	0.821300	0.536300	0.425600
O91	O9	0.221600	0.582900	0.282200
O101	O10	0.258500	0.595600	0.164200
O111	O11	0.033400	0.706000	0.286200
O121	O12	0.049700	0.720200	0.166600
O131	O13	0.472200	0.393300	0.755300
O141	O14	0.476400	0.429700	0.640100
O151	O15	0.374600	0.275200	0.728800
O161	O16	0.367500	0.306000	0.612700
O171	O17	0.567700	0.248000	0.840400
O181	O18	0.729700	0.238000	0.909700
O191	O19	0.440200	0.372200	0.910000
O201	O20	0.599000	0.366200	0.981400
O211	O21	0.230200	0.405300	0.831100
O221	O22	0.040200	0.428000	0.895300
O231	O23	0.292300	0.256300	0.878600
O241	O24	0.112700	0.273200	0.945400
O251	O25	0.094600	0.211900	0.099200
O261	O26	0.937400	0.207900	0.029000
O271	O27	0.211700	0.068200	0.062700
O281	O28	0.066600	0.059300	0.988300
O291	O29	0.361500	0.193400	0.054200
O301	O30	0.544700	0.168000	0.989200
O311	O31	0.429900	0.064100	0.129400
O321	O32	0.619100	0.032300	0.069300
O331	O33	0.186700	0.097500	0.213700
O341	O34	0.144200	0.111400	0.331700
O351	O35	0.283200	0.219600	0.204800
O361	O36	0.253300	0.240700	0.322900
O371	O37	0.682600	0.188300	0.228600
O381	O38	0.714500	0.176000	0.110500
O391	O39	0.866600	0.068500	0.252900
O401	O40	0.922300	0.053500	0.136200
O411	O41	0.617300	0.077700	0.342000
O421	O42	0.421700	0.084700	0.389800
O431	O43	0.605900	0.222600	0.374500
O441	O44	0.422900	0.234900	0.438600
O451	O45	0.850100	0.223200	0.325800
O461	O46	0.973400	0.264400	0.399700
O471	O47	0.838900	0.101200	0.408400
O481	O48	0.976700	0.130100	0.480500
O491	O49	0.294200	0.396200	0.351100
H11	H1	0.210900	0.426300	0.344000
H21	H2	0.289800	0.343200	0.343400
O501	O50	0.567100	0.382700	0.360400
H31	H3	0.651300	0.390100	0.357000
H41	H4	0.577300	0.327300	0.355900
O511	O51	0.684900	0.076400	0.851900
H51	H5	0.638700	0.036600	0.849300
H61	H6	0.624400	0.124300	0.844100
O521	O52	0.959200	0.117600	0.855900
H71	H7	0.953200	0.170600	0.841000
H81	H8	0.047700	0.095800	0.857800
C11	C1	0.298900	0.591400	0.460900
C21	C2	0.297500	0.678700	0.440000
C31	C3	0.893600	0.649400	0.457400
C41	C4	0.901900	0.573800	0.413400
C51	C5	0.198100	0.615900	0.220400
C61	C6	0.083100	0.687100	0.223500
C71	C7	0.452400	0.386600	0.689800
C81	C8	0.392300	0.316700	0.674400
C91	C9	0.623300	0.270900	0.892000
C101	C10	0.548800	0.343500	0.931600
C111	C11	0.146200	0.384300	0.874800
C121	C12	0.184500	0.298300	0.903500
C131	C13	0.039900	0.179300	0.054200
C141	C14	0.110300	0.095900	0.032000
C151	C15	0.471600	0.152100	0.036700
C161	C16	0.513500	0.075800	0.081200
C171	C17	0.244100	0.205200	0.268600
C181	C18	0.184700	0.132500	0.274200
C191	C19	0.740900	0.155500	0.171900
C201	C20	0.854100	0.085700	0.186700
C211	C21	0.513700	0.112300	0.376700
C221	C22	0.511300	0.197200	0.400500
C231	C23	0.914400	0.216700	0.381900
C241	C24	0.911800	0.143200	0.428800
Ba71	Ba7	0.598330	0.607060	0.509250
Ba81	Ba8	0.558700	0.535270	0.754360
Ba91	Ba9	0.857630	0.355390	0.967800
Ba101	Ba10	0.198440	0.904000	0.015560
Ba111	Ba11	0.886560	0.041260	0.739220
Ba121	Ba12	0.799560	0.822660	0.540220
Fe51	Fe5	0.891270	0.364000	0.634150
Fe61	Fe6	0.604520	0.679450	0.175970
Fe71	Fe7	0.736600	0.855000	0.872230
Fe81	Fe8	0.254630	0.857210	0.678000
O531	O53	0.780500	0.438000	0.568200
O541	O54	0.622000	0.444700	0.498700
O551	O55	0.780300	0.292800	0.607400
O561	O56	0.630300	0.288300	0.532600
O571	O57	0.026100	0.310600	0.561100
O581	O58	0.188300	0.333000	0.492900
O591	O59	0.006300	0.440700	0.633700
O601	O60	0.178700	0.463700	0.574400
O611	O61	0.778400	0.417100	0.717800
O621	O62	0.741500	0.404400	0.835800
O631	O63	0.966600	0.294000	0.713800
O641	O64	0.950300	0.279800	0.833400
O651	O65	0.527800	0.606700	0.244700
O661	O66	0.523600	0.570300	0.359900
O671	O67	0.625400	0.724800	0.271200
O681	O68	0.632500	0.694000	0.387300
O691	O69	0.432300	0.752000	0.159600
O701	O70	0.270300	0.762000	0.090300
O711	O71	0.559800	0.627800	0.090000
O721	O72	0.401000	0.633800	0.018600
O731	O73	0.769800	0.594700	0.168900
O741	O74	0.959800	0.572000	0.104700
O751	O75	0.707700	0.743700	0.121400
O761	O76	0.887300	0.726800	0.054600
O771	O77	0.905400	0.788100	0.900800
O781	O78	0.062600	0.792100	0.971000
O791	O79	0.788300	0.931800	0.937300
O801	O80	0.933400	0.940700	0.011700
O811	O81	0.638500	0.806600	0.945800
O821	O82	0.455300	0.832000	0.010800
O831	O83	0.570100	0.935900	0.870600
O841	O84	0.380900	0.967700	0.930700
O851	O85	0.813300	0.902500	0.786300
O861	O86	0.855800	0.888600	0.668300
O871	O87	0.716800	0.780400	0.795200
O881	O88	0.746700	0.759300	0.677100
O891	O89	0.317400	0.811700	0.771400
O901	O90	0.285500	0.824000	0.889500
O911	O91	0.133400	0.931500	0.747100
O921	O92	0.077700	0.946500	0.863800
O931	O93	0.382700	0.922300	0.658000
O941	O94	0.578300	0.915300	0.610200
O951	O95	0.394100	0.777400	0.625500
O961	O96	0.577100	0.765100	0.561400
O971	O97	0.149900	0.776800	0.674200
O981	O98	0.026600	0.735600	0.600300
O991	O99	0.161100	0.898800	0.591600
O1001	O100	0.023300	0.869900	0.519500
O1011	O101	0.705800	0.603800	0.648900
H91	H9	0.789100	0.573700	0.656000
H101	H10	0.710200	0.656800	0.656600
O1021	O102	0.432900	0.617300	0.639600
H111	H11	0.348700	0.609900	0.643000
H121	H12	0.422700	0.672700	0.644100
O1031	O103	0.315100	0.923600	0.148100
H131	H13	0.361300	0.963400	0.150700
H141	H14	0.375600	0.875700	0.155900
O1041	O104	0.040800	0.882400	0.144100
H151	H15	0.046800	0.829400	0.159000
H161	H16	0.952300	0.904200	0.142200
C251	C25	0.701100	0.408600	0.539100
C261	C26	0.702500	0.321300	0.560000
C271	C27	0.106400	0.350600	0.542600
C281	C28	0.098100	0.426200	0.586600
C291	C29	0.801900	0.384100	0.779600
C301	C30	0.916900	0.312900	0.776500
C311	C31	0.547600	0.613400	0.310200
C321	C32	0.607700	0.683300	0.325600
C331	C33	0.376700	0.729100	0.108000
C341	C34	0.451200	0.656500	0.068400
C351	C35	0.853800	0.615700	0.125200
C361	C36	0.815500	0.701700	0.096500
C371	C37	0.960100	0.820700	0.945800
C381	C38	0.889700	0.904100	0.968000
C391	C39	0.528400	0.847900	0.963300
C401	C40	0.486500	0.924200	0.918800
C411	C41	0.755900	0.794800	0.731400
C421	C42	0.815300	0.867500	0.725800
C431	C43	0.259100	0.844500	0.828100
C441	C44	0.145900	0.914300	0.813300
C451	C45	0.486300	0.887700	0.623300
C461	C46	0.488700	0.802800	0.599500
C471	C47	0.085600	0.783300	0.618100
C481	C48	0.088200	0.856800	0.571200
