data_ZUDPIZ_clean_PM
_symmetry_space_group_name_H-M	'P1'
_cell_length_a	14.424000
_cell_length_b	17.798000
_cell_length_c	17.195000
_cell_angle_alpha	90.000000
_cell_angle_beta	90.000000
_cell_angle_gamma	90.000000
_symmetry_Int_Tables_number 1

loop_
_symmetry_equiv_pos_as_xyz
'x,y,z'

loop_
_atom_site_label
_atom_site_type_symbol
_atom_site_fract_x
_atom_site_fract_y
_atom_site_fract_z
Mn11	Mn1	0.997990	0.836400	0.751700
Mn21	Mn2	0.507760	0.326360	0.164250
S11	S1	0.002600	0.764370	0.450910
O11	O1	0.541700	0.412320	0.081600
O21	O2	0.671000	0.391510	0.148900
O31	O3	0.106600	0.927090	0.753700
O41	O4	0.001200	0.932100	0.845600
O51	O5	0.037900	0.736600	0.676000
O61	O6	0.993800	0.835400	0.608500
O71	O7	0.008100	0.740800	0.280300
O81	O8	0.027500	0.617800	0.281800
N11	N1	0.917700	0.760300	0.828300
N21	N2	0.844900	0.857600	0.732700
N31	N3	0.100100	0.776200	0.831700
N41	N4	0.417600	0.248000	0.093900
N51	N5	0.351500	0.359400	0.178600
N61	N6	0.599500	0.230800	0.116600
C11	C1	0.824500	0.757000	0.824200
C21	C2	0.774600	0.703300	0.865700
H11	H1	0.710200	0.702600	0.862700
C31	C3	0.820200	0.650700	0.911600
C41	C4	0.917800	0.656000	0.915200
H21	H2	0.951200	0.622000	0.945100
C51	C5	0.963800	0.711600	0.874300
C61	C6	0.783400	0.815000	0.772700
C71	C7	0.687700	0.825900	0.765100
H31	H3	0.646600	0.795300	0.792100
C81	C8	0.654700	0.881800	0.717700
H41	H4	0.591300	0.889800	0.712300
C91	C9	0.718100	0.926500	0.677800
H51	H5	0.697900	0.965500	0.646100
C101	C10	0.812700	0.911600	0.686300
H61	H6	0.854900	0.940600	0.658500
C111	C11	0.065400	0.722200	0.878000
C121	C12	0.122400	0.680200	0.926600
H71	H7	0.097200	0.643100	0.958300
C131	C13	0.215600	0.693900	0.927500
H81	H8	0.254400	0.665900	0.959500
C141	C14	0.252100	0.750100	0.880000
H91	H9	0.315100	0.761000	0.880400
C151	C15	0.192300	0.789000	0.832500
H101	H10	0.216300	0.825700	0.799600
C161	C16	0.770700	0.589800	0.955900
C171	C17	0.678700	0.572700	0.941500
H111	H11	0.647100	0.597500	0.902000
C181	C18	0.633300	0.519000	0.985400
H121	H12	0.571300	0.508800	0.975000
C191	C19	0.678000	0.479800	0.044900
C201	C20	0.771200	0.495200	0.057400
H131	H13	0.803500	0.468800	0.095300
C211	C21	0.816800	0.549300	0.013900
H141	H14	0.879100	0.559000	0.023500
C221	C22	0.628500	0.424800	0.095600
C231	C23	0.326100	0.257700	0.089200
C241	C24	0.269300	0.211200	0.044400
H151	H15	0.205900	0.220300	0.041300
C251	C25	0.309300	0.150100	0.003700
C261	C26	0.405500	0.141200	0.009800
H161	H16	0.434900	0.102300	0.983300
C271	C27	0.457200	0.190600	0.055600
C281	C28	0.287300	0.319600	0.138200
C291	C29	0.193100	0.334900	0.143300
H171	H17	0.150500	0.307200	0.114600
C301	C30	0.163600	0.392100	0.192200
H181	H18	0.100700	0.402500	0.197500
C311	C31	0.228400	0.433500	0.232600
H191	H19	0.210100	0.472700	0.265000
C321	C32	0.320500	0.415700	0.224200
H201	H20	0.363800	0.444100	0.251500
C331	C33	0.559200	0.181100	0.067000
C341	C34	0.609200	0.124300	0.032400
H211	H21	0.581300	0.092400	0.996600
C351	C35	0.701800	0.115500	0.051800
H221	H22	0.736400	0.076900	0.029700
C361	C36	0.742500	0.164200	0.103800
H231	H23	0.804200	0.158700	0.118400
C371	C37	0.688300	0.221700	0.133600
H241	H24	0.715800	0.255700	0.167500
C381	C38	0.251000	0.097300	0.958100
C391	C39	0.156000	0.092100	0.971100
H251	H25	0.129200	0.120900	0.010200
C401	C40	0.100000	0.044500	0.926900
H261	H26	0.036800	0.041300	0.937100
C411	C41	0.139000	0.001800	0.867300
C421	C42	0.234900	0.004500	0.855900
H271	H27	0.262000	0.974500	0.817900
C431	C43	0.289600	0.051400	0.900300
H281	H28	0.353300	0.052500	0.891800
C441	C44	0.078400	0.951500	0.818800
C451	C45	0.027800	0.724300	0.539200
C461	C46	0.054000	0.649700	0.530900
H291	H29	0.069000	0.618400	0.572300
C471	C47	0.055000	0.627100	0.452500
H301	H30	0.072300	0.579300	0.436200
C481	C48	0.028000	0.682600	0.402800
C491	C49	0.019500	0.768400	0.611800
C501	C50	0.020400	0.680600	0.316000
Mn31	Mn3	0.497990	0.163600	0.751700
Mn41	Mn4	0.007760	0.673640	0.164250
S21	S2	0.502600	0.235630	0.450910
O91	O9	0.041700	0.587680	0.081600
O101	O10	0.171000	0.608490	0.148900
O111	O11	0.606600	0.072910	0.753700
O121	O12	0.501200	0.067900	0.845600
O131	O13	0.537900	0.263400	0.676000
O141	O14	0.493800	0.164600	0.608500
O151	O15	0.508100	0.259200	0.280300
O161	O16	0.527500	0.382200	0.281800
N71	N7	0.417700	0.239700	0.828300
N81	N8	0.344900	0.142400	0.732700
N91	N9	0.600100	0.223800	0.831700
N101	N10	0.917600	0.752000	0.093900
N111	N11	0.851500	0.640600	0.178600
N121	N12	0.099500	0.769200	0.116600
C511	C51	0.324500	0.243000	0.824200
C521	C52	0.274600	0.296700	0.865700
H311	H31	0.210200	0.297400	0.862700
C531	C53	0.320200	0.349300	0.911600
C541	C54	0.417800	0.344000	0.915200
H321	H32	0.451200	0.378000	0.945100
C551	C55	0.463800	0.288400	0.874300
C561	C56	0.283400	0.185000	0.772700
C571	C57	0.187700	0.174100	0.765100
H331	H33	0.146600	0.204700	0.792100
C581	C58	0.154700	0.118200	0.717700
H341	H34	0.091300	0.110200	0.712300
C591	C59	0.218100	0.073500	0.677800
H351	H35	0.197900	0.034500	0.646100
C601	C60	0.312700	0.088400	0.686300
H361	H36	0.354900	0.059400	0.658500
C611	C61	0.565400	0.277800	0.878000
C621	C62	0.622400	0.319800	0.926600
H371	H37	0.597200	0.356900	0.958300
C631	C63	0.715600	0.306100	0.927500
H381	H38	0.754400	0.334100	0.959500
C641	C64	0.752100	0.249900	0.880000
H391	H39	0.815100	0.239000	0.880400
C651	C65	0.692300	0.211000	0.832500
H401	H40	0.716300	0.174300	0.799600
C661	C66	0.270700	0.410200	0.955900
C671	C67	0.178700	0.427300	0.941500
H411	H41	0.147100	0.402500	0.902000
C681	C68	0.133300	0.481000	0.985400
H421	H42	0.071300	0.491200	0.975000
C691	C69	0.178000	0.520200	0.044900
C701	C70	0.271200	0.504800	0.057400
H431	H43	0.303500	0.531200	0.095300
C711	C71	0.316800	0.450700	0.013900
H441	H44	0.379100	0.441000	0.023500
C721	C72	0.128500	0.575200	0.095600
C731	C73	0.826100	0.742300	0.089200
C741	C74	0.769300	0.788800	0.044400
H451	H45	0.705900	0.779700	0.041300
C751	C75	0.809300	0.849900	0.003700
C761	C76	0.905500	0.858800	0.009800
H461	H46	0.934900	0.897700	0.983300
C771	C77	0.957200	0.809400	0.055600
C781	C78	0.787300	0.680400	0.138200
C791	C79	0.693100	0.665100	0.143300
H471	H47	0.650500	0.692800	0.114600
C801	C80	0.663600	0.607900	0.192200
H481	H48	0.600700	0.597500	0.197500
C811	C81	0.728400	0.566500	0.232600
H491	H49	0.710100	0.527300	0.265000
C821	C82	0.820500	0.584300	0.224200
H501	H50	0.863800	0.555900	0.251500
C831	C83	0.059200	0.818900	0.067000
C841	C84	0.109200	0.875700	0.032400
H511	H51	0.081300	0.907600	0.996600
C851	C85	0.201800	0.884500	0.051800
H521	H52	0.236400	0.923100	0.029700
C861	C86	0.242500	0.835800	0.103800
H531	H53	0.304200	0.841300	0.118400
C871	C87	0.188300	0.778300	0.133600
H541	H54	0.215800	0.744300	0.167500
C881	C88	0.751000	0.902700	0.958100
C891	C89	0.656000	0.907900	0.971100
H551	H55	0.629200	0.879100	0.010200
C901	C90	0.600000	0.955500	0.926900
H561	H56	0.536800	0.958700	0.937100
C911	C91	0.639000	0.998200	0.867300
C921	C92	0.734900	0.995500	0.855900
H571	H57	0.762000	0.025500	0.817900
C931	C93	0.789600	0.948600	0.900300
H581	H58	0.853300	0.947500	0.891800
C941	C94	0.578400	0.048500	0.818800
C951	C95	0.527800	0.275700	0.539200
C961	C96	0.554000	0.350300	0.530900
H591	H59	0.569000	0.381600	0.572300
C971	C97	0.555000	0.372900	0.452500
H601	H60	0.572300	0.420700	0.436200
C981	C98	0.528000	0.317400	0.402800
C991	C99	0.519500	0.231600	0.611800
C1001	C100	0.520400	0.319400	0.316000
Mn51	Mn5	0.002010	0.163600	0.251700
Mn61	Mn6	0.492240	0.673640	0.664250
S31	S3	0.997400	0.235630	0.950910
O171	O17	0.458300	0.587680	0.581600
O181	O18	0.329000	0.608490	0.648900
O191	O19	0.893400	0.072910	0.253700
O201	O20	0.998800	0.067900	0.345600
O211	O21	0.962100	0.263400	0.176000
O221	O22	0.006200	0.164600	0.108500
O231	O23	0.991900	0.259200	0.780300
O241	O24	0.972500	0.382200	0.781800
N131	N13	0.082300	0.239700	0.328300
N141	N14	0.155100	0.142400	0.232700
N151	N15	0.899900	0.223800	0.331700
N161	N16	0.582400	0.752000	0.593900
N171	N17	0.648500	0.640600	0.678600
N181	N18	0.400500	0.769200	0.616600
C1011	C101	0.175500	0.243000	0.324200
C1021	C102	0.225400	0.296700	0.365700
H611	H61	0.289800	0.297400	0.362700
C1031	C103	0.179800	0.349300	0.411600
C1041	C104	0.082200	0.344000	0.415200
H621	H62	0.048800	0.378000	0.445100
C1051	C105	0.036200	0.288400	0.374300
C1061	C106	0.216600	0.185000	0.272700
C1071	C107	0.312300	0.174100	0.265100
H631	H63	0.353400	0.204700	0.292100
C1081	C108	0.345300	0.118200	0.217700
H641	H64	0.408700	0.110200	0.212300
C1091	C109	0.281900	0.073500	0.177800
H651	H65	0.302100	0.034500	0.146100
C1101	C110	0.187300	0.088400	0.186300
H661	H66	0.145100	0.059400	0.158500
C1111	C111	0.934600	0.277800	0.378000
C1121	C112	0.877600	0.319800	0.426600
H671	H67	0.902800	0.356900	0.458300
C1131	C113	0.784400	0.306100	0.427500
H681	H68	0.745600	0.334100	0.459500
C1141	C114	0.747900	0.249900	0.380000
H691	H69	0.684900	0.239000	0.380400
C1151	C115	0.807700	0.211000	0.332500
H701	H70	0.783700	0.174300	0.299600
C1161	C116	0.229300	0.410200	0.455900
C1171	C117	0.321300	0.427300	0.441500
H711	H71	0.352900	0.402500	0.402000
C1181	C118	0.366700	0.481000	0.485400
H721	H72	0.428700	0.491200	0.475000
C1191	C119	0.322000	0.520200	0.544900
C1201	C120	0.228800	0.504800	0.557400
H731	H73	0.196500	0.531200	0.595300
C1211	C121	0.183200	0.450700	0.513900
H741	H74	0.120900	0.441000	0.523500
C1221	C122	0.371500	0.575200	0.595600
C1231	C123	0.673900	0.742300	0.589200
C1241	C124	0.730700	0.788800	0.544400
H751	H75	0.794100	0.779700	0.541300
C1251	C125	0.690700	0.849900	0.503700
C1261	C126	0.594500	0.858800	0.509800
H761	H76	0.565100	0.897700	0.483300
C1271	C127	0.542800	0.809400	0.555600
C1281	C128	0.712700	0.680400	0.638200
C1291	C129	0.806900	0.665100	0.643300
H771	H77	0.849500	0.692800	0.614600
C1301	C130	0.836400	0.607900	0.692200
H781	H78	0.899300	0.597500	0.697500
C1311	C131	0.771600	0.566500	0.732600
H791	H79	0.789900	0.527300	0.765000
C1321	C132	0.679500	0.584300	0.724200
H801	H80	0.636200	0.555900	0.751500
C1331	C133	0.440800	0.818900	0.567000
C1341	C134	0.390800	0.875700	0.532400
H811	H81	0.418700	0.907600	0.496600
C1351	C135	0.298200	0.884500	0.551800
H821	H82	0.263600	0.923100	0.529700
C1361	C136	0.257500	0.835800	0.603800
H831	H83	0.195800	0.841300	0.618400
C1371	C137	0.311700	0.778300	0.633600
H841	H84	0.284200	0.744300	0.667500
C1381	C138	0.749000	0.902700	0.458100
C1391	C139	0.844000	0.907900	0.471100
H851	H85	0.870800	0.879100	0.510200
C1401	C140	0.900000	0.955500	0.426900
H861	H86	0.963200	0.958700	0.437100
C1411	C141	0.861000	0.998200	0.367300
C1421	C142	0.765100	0.995500	0.355900
H871	H87	0.738000	0.025500	0.317900
C1431	C143	0.710400	0.948600	0.400300
H881	H88	0.646700	0.947500	0.391800
C1441	C144	0.921600	0.048500	0.318800
C1451	C145	0.972200	0.275700	0.039200
C1461	C146	0.946000	0.350300	0.030900
H891	H89	0.931000	0.381600	0.072300
C1471	C147	0.945000	0.372900	0.952500
H901	H90	0.927700	0.420700	0.936200
C1481	C148	0.972000	0.317400	0.902800
C1491	C149	0.980500	0.231600	0.111800
C1501	C150	0.979600	0.319400	0.816000
Mn71	Mn7	0.502010	0.836400	0.251700
Mn81	Mn8	0.992240	0.326360	0.664250
S41	S4	0.497400	0.764370	0.950910
O251	O25	0.958300	0.412320	0.581600
O261	O26	0.829000	0.391510	0.648900
O271	O27	0.393400	0.927090	0.253700
O281	O28	0.498800	0.932100	0.345600
O291	O29	0.462100	0.736600	0.176000
O301	O30	0.506200	0.835400	0.108500
O311	O31	0.491900	0.740800	0.780300
O321	O32	0.472500	0.617800	0.781800
N191	N19	0.582300	0.760300	0.328300
N201	N20	0.655100	0.857600	0.232700
N211	N21	0.399900	0.776200	0.331700
N221	N22	0.082400	0.248000	0.593900
N231	N23	0.148500	0.359400	0.678600
N241	N24	0.900500	0.230800	0.616600
C1511	C151	0.675500	0.757000	0.324200
C1521	C152	0.725400	0.703300	0.365700
H911	H91	0.789800	0.702600	0.362700
C1531	C153	0.679800	0.650700	0.411600
C1541	C154	0.582200	0.656000	0.415200
H921	H92	0.548800	0.622000	0.445100
C1551	C155	0.536200	0.711600	0.374300
C1561	C156	0.716600	0.815000	0.272700
C1571	C157	0.812300	0.825900	0.265100
H931	H93	0.853400	0.795300	0.292100
C1581	C158	0.845300	0.881800	0.217700
H941	H94	0.908700	0.889800	0.212300
C1591	C159	0.781900	0.926500	0.177800
H951	H95	0.802100	0.965500	0.146100
C1601	C160	0.687300	0.911600	0.186300
H961	H96	0.645100	0.940600	0.158500
C1611	C161	0.434600	0.722200	0.378000
C1621	C162	0.377600	0.680200	0.426600
H971	H97	0.402800	0.643100	0.458300
C1631	C163	0.284400	0.693900	0.427500
H981	H98	0.245600	0.665900	0.459500
C1641	C164	0.247900	0.750100	0.380000
H991	H99	0.184900	0.761000	0.380400
C1651	C165	0.307700	0.789000	0.332500
H1001	H100	0.283700	0.825700	0.299600
C1661	C166	0.729300	0.589800	0.455900
C1671	C167	0.821300	0.572700	0.441500
H1011	H101	0.852900	0.597500	0.402000
C1681	C168	0.866700	0.519000	0.485400
H1021	H102	0.928700	0.508800	0.475000
C1691	C169	0.822000	0.479800	0.544900
C1701	C170	0.728800	0.495200	0.557400
H1031	H103	0.696500	0.468800	0.595300
C1711	C171	0.683200	0.549300	0.513900
H1041	H104	0.620900	0.559000	0.523500
C1721	C172	0.871500	0.424800	0.595600
C1731	C173	0.173900	0.257700	0.589200
C1741	C174	0.230700	0.211200	0.544400
H1051	H105	0.294100	0.220300	0.541300
C1751	C175	0.190700	0.150100	0.503700
C1761	C176	0.094500	0.141200	0.509800
H1061	H106	0.065100	0.102300	0.483300
C1771	C177	0.042800	0.190600	0.555600
C1781	C178	0.212700	0.319600	0.638200
C1791	C179	0.306900	0.334900	0.643300
H1071	H107	0.349500	0.307200	0.614600
C1801	C180	0.336400	0.392100	0.692200
H1081	H108	0.399300	0.402500	0.697500
C1811	C181	0.271600	0.433500	0.732600
H1091	H109	0.289900	0.472700	0.765000
C1821	C182	0.179500	0.415700	0.724200
H1101	H110	0.136200	0.444100	0.751500
C1831	C183	0.940800	0.181100	0.567000
C1841	C184	0.890800	0.124300	0.532400
H1111	H111	0.918700	0.092400	0.496600
C1851	C185	0.798200	0.115500	0.551800
H1121	H112	0.763600	0.076900	0.529700
C1861	C186	0.757500	0.164200	0.603800
H1131	H113	0.695800	0.158700	0.618400
C1871	C187	0.811700	0.221700	0.633600
H1141	H114	0.784200	0.255700	0.667500
C1881	C188	0.249000	0.097300	0.458100
C1891	C189	0.344000	0.092100	0.471100
H1151	H115	0.370800	0.120900	0.510200
C1901	C190	0.400000	0.044500	0.426900
H1161	H116	0.463200	0.041300	0.437100
C1911	C191	0.361000	0.001800	0.367300
C1921	C192	0.265100	0.004500	0.355900
H1171	H117	0.238000	0.974500	0.317900
C1931	C193	0.210400	0.051400	0.400300
H1181	H118	0.146700	0.052500	0.391800
C1941	C194	0.421600	0.951500	0.318800
C1951	C195	0.472200	0.724300	0.039200
C1961	C196	0.446000	0.649700	0.030900
H1191	H119	0.431000	0.618400	0.072300
C1971	C197	0.445000	0.627100	0.952500
H1201	H120	0.427700	0.579300	0.936200
C1981	C198	0.472000	0.682600	0.902800
C1991	C199	0.480500	0.768400	0.111800
C2001	C200	0.479600	0.680600	0.816000
