data_ZUDQEW_clean_PM
_symmetry_space_group_name_H-M	'P1'
_cell_length_a	11.517800
_cell_length_b	12.412600
_cell_length_c	13.170800
_cell_angle_alpha	94.261000
_cell_angle_beta	92.978000
_cell_angle_gamma	93.134000
_symmetry_Int_Tables_number 1

loop_
_symmetry_equiv_pos_as_xyz
'x,y,z'

loop_
_atom_site_label
_atom_site_type_symbol
_atom_site_fract_x
_atom_site_fract_y
_atom_site_fract_z
Cd11	Cd1	0.723490	0.041600	0.475060
Cd21	Cd2	0.120880	0.465780	0.726600
Cd31	Cd3	0.471070	0.683280	0.121480
C11	C1	0.436900	0.452800	0.340000
N11	N1	0.852100	0.177700	0.553600
O11	O1	0.212800	0.507100	0.577900
N21	N2	0.993200	0.325500	0.647100
O21	O2	0.281700	0.375000	0.659000
O31	O3	0.631600	0.173400	0.351500
C21	C2	0.279300	0.431400	0.583600
O41	O4	0.521700	0.775800	0.967600
O51	O5	0.577300	0.153500	0.505800
O61	O6	0.775100	0.909100	0.569900
C31	C3	0.498900	0.297400	0.421600
O71	O7	0.514600	0.509300	0.186400
C41	C4	0.502700	0.363500	0.341900
H11	H1	0.550500	0.347600	0.288700
C51	C5	0.572900	0.202000	0.425000
C61	C6	0.427000	0.321700	0.500400
H21	H2	0.425000	0.278300	0.554900
O81	O8	0.389300	0.611500	0.261600
C71	C7	0.358600	0.408800	0.499100
C81	C8	0.947600	0.605700	0.763000
C91	C9	0.608000	0.719700	0.957200
O91	O9	0.630300	0.648200	0.018000
O101	O10	0.973600	0.543700	0.831700
C101	C10	0.446900	0.529100	0.257500
C111	C11	0.686200	0.736100	0.872400
C121	C12	0.827500	0.756300	0.707900
H31	H3	0.872900	0.761500	0.651900
C131	C13	0.363700	0.474900	0.418900
H41	H4	0.318000	0.534300	0.417800
C141	C14	0.667500	0.814600	0.804100
H51	H5	0.607200	0.860700	0.813300
C151	C15	0.778600	0.669300	0.857400
H61	H6	0.792500	0.616700	0.902600
O111	O11	0.002300	0.607200	0.684900
O121	O12	0.641100	0.976600	0.666500
C161	C16	0.849500	0.679700	0.777200
C171	C17	0.715700	0.909900	0.646800
C181	C18	0.737900	0.824900	0.722300
C191	C19	0.968800	0.136600	0.570000
H71	H7	0.000200	0.117000	0.504700
H81	H8	0.963000	0.072200	0.607300
C201	C20	0.810700	0.211900	0.654900
H91	H9	0.808400	0.150900	0.696900
H101	H10	0.732400	0.236400	0.647100
C211	C21	0.891400	0.302700	0.706700
H111	H11	0.848700	0.367700	0.715900
H121	H12	0.917600	0.283000	0.773600
C221	C22	0.951000	0.358200	0.548300
H131	H13	0.016300	0.368500	0.505700
H141	H14	0.914700	0.426600	0.557900
C231	C23	0.862600	0.273000	0.494500
H151	H15	0.787300	0.303700	0.486800
H161	H16	0.887500	0.251700	0.427100
C241	C24	0.051200	0.223100	0.630300
H171	H17	0.075000	0.197400	0.695600
H181	H18	0.120400	0.235500	0.592900
Cd41	Cd4	0.276510	0.958400	0.524940
Cd51	Cd5	0.879120	0.534220	0.273400
Cd61	Cd6	0.528930	0.316720	0.878520
C251	C25	0.563100	0.547200	0.660000
N31	N3	0.147900	0.822300	0.446400
O131	O13	0.787200	0.492900	0.422100
N41	N4	0.006800	0.674500	0.352900
O141	O14	0.718300	0.625000	0.341000
O151	O15	0.368400	0.826600	0.648500
C261	C26	0.720700	0.568600	0.416400
O161	O16	0.478300	0.224200	0.032400
O171	O17	0.422700	0.846500	0.494200
O181	O18	0.224900	0.090900	0.430100
C271	C27	0.501100	0.702600	0.578400
O191	O19	0.485400	0.490700	0.813600
C281	C28	0.497300	0.636500	0.658100
H191	H19	0.449500	0.652400	0.711300
C291	C29	0.427100	0.798000	0.575000
C301	C30	0.573000	0.678300	0.499600
H201	H20	0.575000	0.721700	0.445100
O201	O20	0.610700	0.388500	0.738400
C311	C31	0.641400	0.591200	0.500900
C321	C32	0.052400	0.394300	0.237000
C331	C33	0.392000	0.280300	0.042800
O211	O21	0.369700	0.351800	0.982000
O221	O22	0.026400	0.456300	0.168300
C341	C34	0.553100	0.470900	0.742500
C351	C35	0.313800	0.263900	0.127600
C361	C36	0.172500	0.243700	0.292100
H211	H21	0.127100	0.238500	0.348100
C371	C37	0.636300	0.525100	0.581100
H221	H22	0.682000	0.465700	0.582200
C381	C38	0.332500	0.185400	0.195900
H231	H23	0.392800	0.139300	0.186700
C391	C39	0.221400	0.330700	0.142600
H241	H24	0.207500	0.383300	0.097400
O231	O23	0.997700	0.392800	0.315100
O241	O24	0.358900	0.023400	0.333500
C401	C40	0.150500	0.320300	0.222800
C411	C41	0.284300	0.090100	0.353200
C421	C42	0.262100	0.175100	0.277700
C431	C43	0.031200	0.863400	0.430000
H251	H25	0.999800	0.883000	0.495300
H261	H26	0.037000	0.927800	0.392700
C441	C44	0.189300	0.788100	0.345100
H271	H27	0.191600	0.849100	0.303100
H281	H28	0.267600	0.763600	0.352900
C451	C45	0.108600	0.697300	0.293300
H291	H29	0.151300	0.632300	0.284100
H301	H30	0.082400	0.717000	0.226400
C461	C46	0.049000	0.641800	0.451700
H311	H31	0.983700	0.631500	0.494300
H321	H32	0.085300	0.573400	0.442100
C471	C47	0.137400	0.727000	0.505500
H331	H33	0.212700	0.696300	0.513200
H341	H34	0.112500	0.748300	0.572900
C481	C48	0.948800	0.776900	0.369700
H351	H35	0.925000	0.802600	0.304400
H361	H36	0.879600	0.764500	0.407100
