data_ZUDQUM_clean_PM
_symmetry_space_group_name_H-M	'P1'
_cell_length_a	16.044500
_cell_length_b	11.898500
_cell_length_c	18.389600
_cell_angle_alpha	90.000000
_cell_angle_beta	104.452000
_cell_angle_gamma	90.000000
_symmetry_Int_Tables_number 1

loop_
_symmetry_equiv_pos_as_xyz
'x,y,z'

loop_
_atom_site_label
_atom_site_type_symbol
_atom_site_fract_x
_atom_site_fract_y
_atom_site_fract_z
Mn11	Mn1	0.143150	0.709040	0.437770
O11	O1	0.984500	0.706200	0.150800
O21	O2	0.328400	0.332500	0.141200
O31	O3	0.213100	0.589300	0.390000
C11	C1	0.212900	0.449800	0.151400
O41	O4	0.340100	0.590700	0.362100
C21	C2	0.094900	0.570300	0.157200
O51	O5	0.216400	0.338200	0.045800
O61	O6	0.962200	0.577100	0.063400
C31	C3	0.216100	0.553900	0.264600
C41	C4	0.132700	0.494200	0.118500
H11	H1	0.104100	0.472800	0.070100
C51	C5	0.259300	0.581200	0.345300
O71	O7	0.086400	0.833000	0.497000
H21	H2	0.118700	0.844200	0.538600
C61	C6	0.255100	0.368400	0.109600
C71	C7	0.254900	0.482000	0.223900
H31	H3	0.309900	0.454800	0.245400
C81	C8	0.008700	0.620600	0.121100
C91	C9	0.135700	0.598300	0.231000
H41	H4	0.109100	0.646900	0.257800
Mn21	Mn2	0.643150	0.209040	0.437770
O81	O8	0.484500	0.206200	0.150800
O91	O9	0.828400	0.832500	0.141200
O101	O10	0.713100	0.089300	0.390000
C101	C10	0.712900	0.949800	0.151400
O111	O11	0.840100	0.090700	0.362100
C111	C11	0.594900	0.070300	0.157200
O121	O12	0.716400	0.838200	0.045800
O131	O13	0.462200	0.077100	0.063400
C121	C12	0.716100	0.053900	0.264600
C131	C13	0.632700	0.994200	0.118500
H51	H5	0.604100	0.972800	0.070100
C141	C14	0.759300	0.081200	0.345300
O141	O14	0.586400	0.333000	0.497000
H61	H6	0.618700	0.344200	0.538600
C151	C15	0.755100	0.868400	0.109600
C161	C16	0.754900	0.982000	0.223900
H71	H7	0.809900	0.954800	0.245400
C171	C17	0.508700	0.120600	0.121100
C181	C18	0.635700	0.098300	0.231000
H81	H8	0.609100	0.146900	0.257800
Mn31	Mn3	0.856850	0.709040	0.062230
O151	O15	0.015500	0.706200	0.349200
O161	O16	0.671600	0.332500	0.358800
O171	O17	0.786900	0.589300	0.110000
C191	C19	0.787100	0.449800	0.348600
O181	O18	0.659900	0.590700	0.137900
C201	C20	0.905100	0.570300	0.342800
O191	O19	0.783600	0.338200	0.454200
O201	O20	0.037800	0.577100	0.436600
C211	C21	0.783900	0.553900	0.235400
C221	C22	0.867300	0.494200	0.381500
H91	H9	0.895900	0.472800	0.429900
C231	C23	0.740700	0.581200	0.154700
O211	O21	0.913600	0.833000	0.003000
H101	H10	0.881300	0.844200	0.961400
C241	C24	0.744900	0.368400	0.390400
C251	C25	0.745100	0.482000	0.276100
H111	H11	0.690100	0.454800	0.254600
C261	C26	0.991300	0.620600	0.378900
C271	C27	0.864300	0.598300	0.269000
H121	H12	0.890900	0.646900	0.242200
Mn41	Mn4	0.356850	0.209040	0.062230
O221	O22	0.515500	0.206200	0.349200
O231	O23	0.171600	0.832500	0.358800
O241	O24	0.286900	0.089300	0.110000
C281	C28	0.287100	0.949800	0.348600
O251	O25	0.159900	0.090700	0.137900
C291	C29	0.405100	0.070300	0.342800
O261	O26	0.283600	0.838200	0.454200
O271	O27	0.537800	0.077100	0.436600
C301	C30	0.283900	0.053900	0.235400
C311	C31	0.367300	0.994200	0.381500
H131	H13	0.395900	0.972800	0.429900
C321	C32	0.240700	0.081200	0.154700
O281	O28	0.413600	0.333000	0.003000
H141	H14	0.381300	0.344200	0.961400
C331	C33	0.244900	0.868400	0.390400
C341	C34	0.245100	0.982000	0.276100
H151	H15	0.190100	0.954800	0.254600
C351	C35	0.491300	0.120600	0.378900
C361	C36	0.364300	0.098300	0.269000
H161	H16	0.390900	0.146900	0.242200
Mn51	Mn5	0.856850	0.290960	0.562230
O291	O29	0.015500	0.293800	0.849200
O301	O30	0.671600	0.667500	0.858800
O311	O31	0.786900	0.410700	0.610000
C371	C37	0.787100	0.550200	0.848600
O321	O32	0.659900	0.409300	0.637900
C381	C38	0.905100	0.429700	0.842800
O331	O33	0.783600	0.661800	0.954200
O341	O34	0.037800	0.422900	0.936600
C391	C39	0.783900	0.446100	0.735400
C401	C40	0.867300	0.505800	0.881500
H171	H17	0.895900	0.527200	0.929900
C411	C41	0.740700	0.418800	0.654700
O351	O35	0.913600	0.167000	0.503000
H181	H18	0.881300	0.155800	0.461400
C421	C42	0.744900	0.631600	0.890400
C431	C43	0.745100	0.518000	0.776100
H191	H19	0.690100	0.545200	0.754600
C441	C44	0.991300	0.379400	0.878900
C451	C45	0.864300	0.401700	0.769000
H201	H20	0.890900	0.353100	0.742200
Mn61	Mn6	0.356850	0.790960	0.562230
O361	O36	0.515500	0.793800	0.849200
O371	O37	0.171600	0.167500	0.858800
O381	O38	0.286900	0.910700	0.610000
C461	C46	0.287100	0.050200	0.848600
O391	O39	0.159900	0.909300	0.637900
C471	C47	0.405100	0.929700	0.842800
O401	O40	0.283600	0.161800	0.954200
O411	O41	0.537800	0.922900	0.936600
C481	C48	0.283900	0.946100	0.735400
C491	C49	0.367300	0.005800	0.881500
H211	H21	0.395900	0.027200	0.929900
C501	C50	0.240700	0.918800	0.654700
O421	O42	0.413600	0.667000	0.503000
H221	H22	0.381300	0.655800	0.461400
C511	C51	0.244900	0.131600	0.890400
C521	C52	0.245100	0.018000	0.776100
H231	H23	0.190100	0.045200	0.754600
C531	C53	0.491300	0.879400	0.878900
C541	C54	0.364300	0.901700	0.769000
H241	H24	0.390900	0.853100	0.742200
Mn71	Mn7	0.143150	0.290960	0.937770
O431	O43	0.984500	0.293800	0.650800
O441	O44	0.328400	0.667500	0.641200
O451	O45	0.213100	0.410700	0.890000
C551	C55	0.212900	0.550200	0.651400
O461	O46	0.340100	0.409300	0.862100
C561	C56	0.094900	0.429700	0.657200
O471	O47	0.216400	0.661800	0.545800
O481	O48	0.962200	0.422900	0.563400
C571	C57	0.216100	0.446100	0.764600
C581	C58	0.132700	0.505800	0.618500
H251	H25	0.104100	0.527200	0.570100
C591	C59	0.259300	0.418800	0.845300
O491	O49	0.086400	0.167000	0.997000
H261	H26	0.118700	0.155800	0.038600
C601	C60	0.255100	0.631600	0.609600
C611	C61	0.254900	0.518000	0.723900
H271	H27	0.309900	0.545200	0.745400
C621	C62	0.008700	0.379400	0.621100
C631	C63	0.135700	0.401700	0.731000
H281	H28	0.109100	0.353100	0.757800
Mn81	Mn8	0.643150	0.790960	0.937770
O501	O50	0.484500	0.793800	0.650800
O511	O51	0.828400	0.167500	0.641200
O521	O52	0.713100	0.910700	0.890000
C641	C64	0.712900	0.050200	0.651400
O531	O53	0.840100	0.909300	0.862100
C651	C65	0.594900	0.929700	0.657200
O541	O54	0.716400	0.161800	0.545800
O551	O55	0.462200	0.922900	0.563400
C661	C66	0.716100	0.946100	0.764600
C671	C67	0.632700	0.005800	0.618500
H291	H29	0.604100	0.027200	0.570100
C681	C68	0.759300	0.918800	0.845300
O561	O56	0.586400	0.667000	0.997000
H301	H30	0.618700	0.655800	0.038600
C691	C69	0.755100	0.131600	0.609600
C701	C70	0.754900	0.018000	0.723900
H311	H31	0.809900	0.045200	0.745400
C711	C71	0.508700	0.879400	0.621100
C721	C72	0.635700	0.901700	0.731000
H321	H32	0.609100	0.853100	0.757800
