data_ZUDRAT_clean_PM
_symmetry_space_group_name_H-M	'P1'
_cell_length_a	15.403500
_cell_length_b	16.231100
_cell_length_c	26.268000
_cell_angle_alpha	90.000000
_cell_angle_beta	95.187000
_cell_angle_gamma	90.000000
_symmetry_Int_Tables_number 1

loop_
_symmetry_equiv_pos_as_xyz
'x,y,z'

loop_
_atom_site_label
_atom_site_type_symbol
_atom_site_fract_x
_atom_site_fract_y
_atom_site_fract_z
Mn11	Mn1	0.834280	0.231690	0.655920
O11	O1	0.640500	0.331700	0.599800
Mn21	Mn2	0.678760	0.240910	0.547240
O21	O2	0.790500	0.319100	0.529490
Mn31	Mn3	0.752780	0.047040	0.614450
O31	O3	0.074500	0.662900	0.557900
O41	O4	0.112400	0.547600	0.600900
O51	O5	0.774400	0.165800	0.588460
O61	O6	0.727000	0.309100	0.670100
O71	O7	0.875400	0.328000	0.603200
O81	O8	0.739300	0.565100	0.423000
C11	C1	0.844500	0.355800	0.561200
C21	C2	0.687300	0.460000	0.710100
C31	C3	0.641300	0.428600	0.666700
C41	C4	0.662700	0.535500	0.730300
C51	C5	0.948800	0.475600	0.568900
C61	C6	0.974000	0.552500	0.554300
O91	O9	0.398900	0.536500	0.625400
C71	C7	0.872200	0.440600	0.547000
C81	C8	0.567900	0.468400	0.647200
O101	O10	0.450000	0.658000	0.653000
C91	C9	0.844900	0.561900	0.495200
C101	C10	0.673200	0.350200	0.643300
C111	C11	0.821400	0.485800	0.510400
C121	C12	0.920800	0.595400	0.517500
C131	C13	0.061200	0.590100	0.572600
C141	C14	0.540800	0.541400	0.666500
C151	C15	0.457800	0.581600	0.646600
C161	C16	0.708700	0.568200	0.778400
C171	C17	0.590800	0.576500	0.708000
C181	C18	0.793100	0.605300	0.452200
O111	O11	0.748600	0.515600	0.808300
O121	O12	0.703200	0.642400	0.789200
O131	O13	0.802600	0.680300	0.448100
H11	H1	0.552000	0.449000	0.621000
H21	H2	0.982000	0.445000	0.592000
H31	H3	0.569000	0.623000	0.719000
H41	H4	0.940000	0.641000	0.513000
H51	H5	0.778000	0.470000	0.500000
H61	H6	0.740000	0.430000	0.709000
Mn41	Mn4	0.334280	0.731690	0.655920
O141	O14	0.140500	0.831700	0.599800
Mn51	Mn5	0.178760	0.740910	0.547240
O151	O15	0.290500	0.819100	0.529490
Mn61	Mn6	0.252780	0.547040	0.614450
O161	O16	0.574500	0.162900	0.557900
O171	O17	0.612400	0.047600	0.600900
O181	O18	0.274400	0.665800	0.588460
O191	O19	0.227000	0.809100	0.670100
O201	O20	0.375400	0.828000	0.603200
O211	O21	0.239300	0.065100	0.423000
C191	C19	0.344500	0.855800	0.561200
C201	C20	0.187300	0.960000	0.710100
C211	C21	0.141300	0.928600	0.666700
C221	C22	0.162700	0.035500	0.730300
C231	C23	0.448800	0.975600	0.568900
C241	C24	0.474000	0.052500	0.554300
O221	O22	0.898900	0.036500	0.625400
C251	C25	0.372200	0.940600	0.547000
C261	C26	0.067900	0.968400	0.647200
O231	O23	0.950000	0.158000	0.653000
C271	C27	0.344900	0.061900	0.495200
C281	C28	0.173200	0.850200	0.643300
C291	C29	0.321400	0.985800	0.510400
C301	C30	0.420800	0.095400	0.517500
C311	C31	0.561200	0.090100	0.572600
C321	C32	0.040800	0.041400	0.666500
C331	C33	0.957800	0.081600	0.646600
C341	C34	0.208700	0.068200	0.778400
C351	C35	0.090800	0.076500	0.708000
C361	C36	0.293100	0.105300	0.452200
O241	O24	0.248600	0.015600	0.808300
O251	O25	0.203200	0.142400	0.789200
O261	O26	0.302600	0.180300	0.448100
H71	H7	0.052000	0.949000	0.621000
H81	H8	0.482000	0.945000	0.592000
H91	H9	0.069000	0.123000	0.719000
H101	H10	0.440000	0.141000	0.513000
H111	H11	0.278000	0.970000	0.500000
H121	H12	0.240000	0.930000	0.709000
Mn71	Mn7	0.165720	0.231690	0.844080
O271	O27	0.359500	0.331700	0.900200
Mn81	Mn8	0.321240	0.240910	0.952760
O281	O28	0.209500	0.319100	0.970510
Mn91	Mn9	0.247220	0.047040	0.885550
O291	O29	0.925500	0.662900	0.942100
O301	O30	0.887600	0.547600	0.899100
O311	O31	0.225600	0.165800	0.911540
O321	O32	0.273000	0.309100	0.829900
O331	O33	0.124600	0.328000	0.896800
O341	O34	0.260700	0.565100	0.077000
C371	C37	0.155500	0.355800	0.938800
C381	C38	0.312700	0.460000	0.789900
C391	C39	0.358700	0.428600	0.833300
C401	C40	0.337300	0.535500	0.769700
C411	C41	0.051200	0.475600	0.931100
C421	C42	0.026000	0.552500	0.945700
O351	O35	0.601100	0.536500	0.874600
C431	C43	0.127800	0.440600	0.953000
C441	C44	0.432100	0.468400	0.852800
O361	O36	0.550000	0.658000	0.847000
C451	C45	0.155100	0.561900	0.004800
C461	C46	0.326800	0.350200	0.856700
C471	C47	0.178600	0.485800	0.989600
C481	C48	0.079200	0.595400	0.982500
C491	C49	0.938800	0.590100	0.927400
C501	C50	0.459200	0.541400	0.833500
C511	C51	0.542200	0.581600	0.853400
C521	C52	0.291300	0.568200	0.721600
C531	C53	0.409200	0.576500	0.792000
C541	C54	0.206900	0.605300	0.047800
O371	O37	0.251400	0.515600	0.691700
O381	O38	0.296800	0.642400	0.710800
O391	O39	0.197400	0.680300	0.051900
H131	H13	0.448000	0.449000	0.879000
H141	H14	0.018000	0.445000	0.908000
H151	H15	0.431000	0.623000	0.781000
H161	H16	0.060000	0.641000	0.987000
H171	H17	0.222000	0.470000	0.000000
H181	H18	0.260000	0.430000	0.791000
Mn101	Mn10	0.665720	0.731690	0.844080
O401	O40	0.859500	0.831700	0.900200
Mn111	Mn11	0.821240	0.740910	0.952760
O411	O41	0.709500	0.819100	0.970510
Mn121	Mn12	0.747220	0.547040	0.885550
O421	O42	0.425500	0.162900	0.942100
O431	O43	0.387600	0.047600	0.899100
O441	O44	0.725600	0.665800	0.911540
O451	O45	0.773000	0.809100	0.829900
O461	O46	0.624600	0.828000	0.896800
O471	O47	0.760700	0.065100	0.077000
C551	C55	0.655500	0.855800	0.938800
C561	C56	0.812700	0.960000	0.789900
C571	C57	0.858700	0.928600	0.833300
C581	C58	0.837300	0.035500	0.769700
C591	C59	0.551200	0.975600	0.931100
C601	C60	0.526000	0.052500	0.945700
O481	O48	0.101100	0.036500	0.874600
C611	C61	0.627800	0.940600	0.953000
C621	C62	0.932100	0.968400	0.852800
O491	O49	0.050000	0.158000	0.847000
C631	C63	0.655100	0.061900	0.004800
C641	C64	0.826800	0.850200	0.856700
C651	C65	0.678600	0.985800	0.989600
C661	C66	0.579200	0.095400	0.982500
C671	C67	0.438800	0.090100	0.927400
C681	C68	0.959200	0.041400	0.833500
C691	C69	0.042200	0.081600	0.853400
C701	C70	0.791300	0.068200	0.721600
C711	C71	0.909200	0.076500	0.792000
C721	C72	0.706900	0.105300	0.047800
O501	O50	0.751400	0.015600	0.691700
O511	O51	0.796800	0.142400	0.710800
O521	O52	0.697400	0.180300	0.051900
H191	H19	0.948000	0.949000	0.879000
H201	H20	0.518000	0.945000	0.908000
H211	H21	0.931000	0.123000	0.781000
H221	H22	0.560000	0.141000	0.987000
H231	H23	0.722000	0.970000	0.000000
H241	H24	0.760000	0.930000	0.791000
Mn131	Mn13	0.165720	0.768310	0.344080
O531	O53	0.359500	0.668300	0.400200
Mn141	Mn14	0.321240	0.759090	0.452760
O541	O54	0.209500	0.680900	0.470510
Mn151	Mn15	0.247220	0.952960	0.385550
O551	O55	0.925500	0.337100	0.442100
O561	O56	0.887600	0.452400	0.399100
O571	O57	0.225600	0.834200	0.411540
O581	O58	0.273000	0.690900	0.329900
O591	O59	0.124600	0.672000	0.396800
O601	O60	0.260700	0.434900	0.577000
C731	C73	0.155500	0.644200	0.438800
C741	C74	0.312700	0.540000	0.289900
C751	C75	0.358700	0.571400	0.333300
C761	C76	0.337300	0.464500	0.269700
C771	C77	0.051200	0.524400	0.431100
C781	C78	0.026000	0.447500	0.445700
O611	O61	0.601100	0.463500	0.374600
C791	C79	0.127800	0.559400	0.453000
C801	C80	0.432100	0.531600	0.352800
O621	O62	0.550000	0.342000	0.347000
C811	C81	0.155100	0.438100	0.504800
C821	C82	0.326800	0.649800	0.356700
C831	C83	0.178600	0.514200	0.489600
C841	C84	0.079200	0.404600	0.482500
C851	C85	0.938800	0.409900	0.427400
C861	C86	0.459200	0.458600	0.333500
C871	C87	0.542200	0.418400	0.353400
C881	C88	0.291300	0.431800	0.221600
C891	C89	0.409200	0.423500	0.292000
C901	C90	0.206900	0.394700	0.547800
O631	O63	0.251400	0.484400	0.191700
O641	O64	0.296800	0.357600	0.210800
O651	O65	0.197400	0.319700	0.551900
H251	H25	0.448000	0.551000	0.379000
H261	H26	0.018000	0.555000	0.408000
H271	H27	0.431000	0.377000	0.281000
H281	H28	0.060000	0.359000	0.487000
H291	H29	0.222000	0.530000	0.500000
H301	H30	0.260000	0.570000	0.291000
Mn161	Mn16	0.665720	0.268310	0.344080
O661	O66	0.859500	0.168300	0.400200
Mn171	Mn17	0.821240	0.259090	0.452760
O671	O67	0.709500	0.180900	0.470510
Mn181	Mn18	0.747220	0.452960	0.385550
O681	O68	0.425500	0.837100	0.442100
O691	O69	0.387600	0.952400	0.399100
O701	O70	0.725600	0.334200	0.411540
O711	O71	0.773000	0.190900	0.329900
O721	O72	0.624600	0.172000	0.396800
O731	O73	0.760700	0.934900	0.577000
C911	C91	0.655500	0.144200	0.438800
C921	C92	0.812700	0.040000	0.289900
C931	C93	0.858700	0.071400	0.333300
C941	C94	0.837300	0.964500	0.269700
C951	C95	0.551200	0.024400	0.431100
C961	C96	0.526000	0.947500	0.445700
O741	O74	0.101100	0.963500	0.374600
C971	C97	0.627800	0.059400	0.453000
C981	C98	0.932100	0.031600	0.352800
O751	O75	0.050000	0.842000	0.347000
C991	C99	0.655100	0.938100	0.504800
C1001	C100	0.826800	0.149800	0.356700
C1011	C101	0.678600	0.014200	0.489600
C1021	C102	0.579200	0.904600	0.482500
C1031	C103	0.438800	0.909900	0.427400
C1041	C104	0.959200	0.958600	0.333500
C1051	C105	0.042200	0.918400	0.353400
C1061	C106	0.791300	0.931800	0.221600
C1071	C107	0.909200	0.923500	0.292000
C1081	C108	0.706900	0.894700	0.547800
O761	O76	0.751400	0.984400	0.191700
O771	O77	0.796800	0.857600	0.210800
O781	O78	0.697400	0.819700	0.551900
H311	H31	0.948000	0.051000	0.379000
H321	H32	0.518000	0.055000	0.408000
H331	H33	0.931000	0.877000	0.281000
H341	H34	0.560000	0.859000	0.487000
H351	H35	0.722000	0.030000	0.500000
H361	H36	0.760000	0.070000	0.291000
Mn191	Mn19	0.834280	0.768310	0.155920
O791	O79	0.640500	0.668300	0.099800
Mn201	Mn20	0.678760	0.759090	0.047240
O801	O80	0.790500	0.680900	0.029490
Mn211	Mn21	0.752780	0.952960	0.114450
O811	O81	0.074500	0.337100	0.057900
O821	O82	0.112400	0.452400	0.100900
O831	O83	0.774400	0.834200	0.088460
O841	O84	0.727000	0.690900	0.170100
O851	O85	0.875400	0.672000	0.103200
O861	O86	0.739300	0.434900	0.923000
C1091	C109	0.844500	0.644200	0.061200
C1101	C110	0.687300	0.540000	0.210100
C1111	C111	0.641300	0.571400	0.166700
C1121	C112	0.662700	0.464500	0.230300
C1131	C113	0.948800	0.524400	0.068900
C1141	C114	0.974000	0.447500	0.054300
O871	O87	0.398900	0.463500	0.125400
C1151	C115	0.872200	0.559400	0.047000
C1161	C116	0.567900	0.531600	0.147200
O881	O88	0.450000	0.342000	0.153000
C1171	C117	0.844900	0.438100	0.995200
C1181	C118	0.673200	0.649800	0.143300
C1191	C119	0.821400	0.514200	0.010400
C1201	C120	0.920800	0.404600	0.017500
C1211	C121	0.061200	0.409900	0.072600
C1221	C122	0.540800	0.458600	0.166500
C1231	C123	0.457800	0.418400	0.146600
C1241	C124	0.708700	0.431800	0.278400
C1251	C125	0.590800	0.423500	0.208000
C1261	C126	0.793100	0.394700	0.952200
O891	O89	0.748600	0.484400	0.308300
O901	O90	0.703200	0.357600	0.289200
O911	O91	0.802600	0.319700	0.948100
H371	H37	0.552000	0.551000	0.121000
H381	H38	0.982000	0.555000	0.092000
H391	H39	0.569000	0.377000	0.219000
H401	H40	0.940000	0.359000	0.013000
H411	H41	0.778000	0.530000	0.000000
H421	H42	0.740000	0.570000	0.209000
Mn221	Mn22	0.334280	0.268310	0.155920
O921	O92	0.140500	0.168300	0.099800
Mn231	Mn23	0.178760	0.259090	0.047240
O931	O93	0.290500	0.180900	0.029490
Mn241	Mn24	0.252780	0.452960	0.114450
O941	O94	0.574500	0.837100	0.057900
O951	O95	0.612400	0.952400	0.100900
O961	O96	0.274400	0.334200	0.088460
O971	O97	0.227000	0.190900	0.170100
O981	O98	0.375400	0.172000	0.103200
O991	O99	0.239300	0.934900	0.923000
C1271	C127	0.344500	0.144200	0.061200
C1281	C128	0.187300	0.040000	0.210100
C1291	C129	0.141300	0.071400	0.166700
C1301	C130	0.162700	0.964500	0.230300
C1311	C131	0.448800	0.024400	0.068900
C1321	C132	0.474000	0.947500	0.054300
O1001	O100	0.898900	0.963500	0.125400
C1331	C133	0.372200	0.059400	0.047000
C1341	C134	0.067900	0.031600	0.147200
O1011	O101	0.950000	0.842000	0.153000
C1351	C135	0.344900	0.938100	0.995200
C1361	C136	0.173200	0.149800	0.143300
C1371	C137	0.321400	0.014200	0.010400
C1381	C138	0.420800	0.904600	0.017500
C1391	C139	0.561200	0.909900	0.072600
C1401	C140	0.040800	0.958600	0.166500
C1411	C141	0.957800	0.918400	0.146600
C1421	C142	0.208700	0.931800	0.278400
C1431	C143	0.090800	0.923500	0.208000
C1441	C144	0.293100	0.894700	0.952200
O1021	O102	0.248600	0.984400	0.308300
O1031	O103	0.203200	0.857600	0.289200
O1041	O104	0.302600	0.819700	0.948100
H431	H43	0.052000	0.051000	0.121000
H441	H44	0.482000	0.055000	0.092000
H451	H45	0.069000	0.877000	0.219000
H461	H46	0.440000	0.859000	0.013000
H471	H47	0.278000	0.030000	0.000000
H481	H48	0.240000	0.070000	0.209000
