data_ZUHSEC_clean_PM
_symmetry_space_group_name_H-M	'P1'
_cell_length_a	18.685000
_cell_length_b	11.722000
_cell_length_c	9.244000
_cell_angle_alpha	90.000000
_cell_angle_beta	91.771000
_cell_angle_gamma	90.000000
_symmetry_Int_Tables_number 1

loop_
_symmetry_equiv_pos_as_xyz
'x,y,z'

loop_
_atom_site_label
_atom_site_type_symbol
_atom_site_fract_x
_atom_site_fract_y
_atom_site_fract_z
Ba11	Ba1	0.477900	0.691630	0.507730
O11	O1	0.326200	0.783700	0.510700
O21	O2	0.573700	0.663900	0.281400
C11	C1	0.634000	0.670600	0.342300
C21	C2	0.685100	0.494300	0.217100
O31	O3	0.649500	0.743700	0.441500
N11	N1	0.758200	0.623900	0.355300
C31	C3	0.692800	0.592000	0.300200
N21	N2	0.744300	0.429600	0.184700
C41	C4	0.809200	0.465700	0.234600
H11	H1	0.850400	0.427700	0.207600
C51	C5	0.613500	0.450100	0.164400
O41	O4	0.587600	0.489700	0.042900
O51	O5	0.584400	0.375600	0.236600
H21	H2	0.334200	0.760700	0.420100
H31	H3	0.358100	0.814900	0.559700
C61	C6	0.814400	0.561100	0.327800
H41	H4	0.858600	0.579800	0.370600
Ba21	Ba2	0.977900	0.191630	0.507730
O61	O6	0.826200	0.283700	0.510700
O71	O7	0.073700	0.163900	0.281400
C71	C7	0.134000	0.170600	0.342300
C81	C8	0.185100	0.994300	0.217100
O81	O8	0.149500	0.243700	0.441500
N31	N3	0.258200	0.123900	0.355300
C91	C9	0.192800	0.092000	0.300200
N41	N4	0.244300	0.929600	0.184700
C101	C10	0.309200	0.965700	0.234600
H51	H5	0.350400	0.927700	0.207600
C111	C11	0.113500	0.950100	0.164400
O91	O9	0.087600	0.989700	0.042900
O101	O10	0.084400	0.875600	0.236600
H61	H6	0.834200	0.260700	0.420100
H71	H7	0.858100	0.314900	0.559700
C121	C12	0.314400	0.061100	0.327800
H81	H8	0.358600	0.079800	0.370600
Ba31	Ba3	0.522100	0.691630	0.992270
O111	O11	0.673800	0.783700	0.989300
O121	O12	0.426300	0.663900	0.218600
C131	C13	0.366000	0.670600	0.157700
C141	C14	0.314900	0.494300	0.282900
O131	O13	0.350500	0.743700	0.058500
N51	N5	0.241800	0.623900	0.144700
C151	C15	0.307200	0.592000	0.199800
N61	N6	0.255700	0.429600	0.315300
C161	C16	0.190800	0.465700	0.265400
H91	H9	0.149600	0.427700	0.292400
C171	C17	0.386500	0.450100	0.335600
O141	O14	0.412400	0.489700	0.457100
O151	O15	0.415600	0.375600	0.263400
H101	H10	0.665800	0.760700	0.079900
H111	H11	0.641900	0.814900	0.940300
C181	C18	0.185600	0.561100	0.172200
H121	H12	0.141400	0.579800	0.129400
Ba41	Ba4	0.022100	0.191630	0.992270
O161	O16	0.173800	0.283700	0.989300
O171	O17	0.926300	0.163900	0.218600
C191	C19	0.866000	0.170600	0.157700
C201	C20	0.814900	0.994300	0.282900
O181	O18	0.850500	0.243700	0.058500
N71	N7	0.741800	0.123900	0.144700
C211	C21	0.807200	0.092000	0.199800
N81	N8	0.755700	0.929600	0.315300
C221	C22	0.690800	0.965700	0.265400
H131	H13	0.649600	0.927700	0.292400
C231	C23	0.886500	0.950100	0.335600
O191	O19	0.912400	0.989700	0.457100
O201	O20	0.915600	0.875600	0.263400
H141	H14	0.165800	0.260700	0.079900
H151	H15	0.141900	0.314900	0.940300
C241	C24	0.685600	0.061100	0.172200
H161	H16	0.641400	0.079800	0.129400
Ba51	Ba5	0.522100	0.308370	0.492270
O211	O21	0.673800	0.216300	0.489300
O221	O22	0.426300	0.336100	0.718600
C251	C25	0.366000	0.329400	0.657700
C261	C26	0.314900	0.505700	0.782900
O231	O23	0.350500	0.256300	0.558500
N91	N9	0.241800	0.376100	0.644700
C271	C27	0.307200	0.408000	0.699800
N101	N10	0.255700	0.570400	0.815300
C281	C28	0.190800	0.534300	0.765400
H171	H17	0.149600	0.572300	0.792400
C291	C29	0.386500	0.549900	0.835600
O241	O24	0.412400	0.510300	0.957100
O251	O25	0.415600	0.624400	0.763400
H181	H18	0.665800	0.239300	0.579900
H191	H19	0.641900	0.185100	0.440300
C301	C30	0.185600	0.438900	0.672200
H201	H20	0.141400	0.420200	0.629400
Ba61	Ba6	0.022100	0.808370	0.492270
O261	O26	0.173800	0.716300	0.489300
O271	O27	0.926300	0.836100	0.718600
C311	C31	0.866000	0.829400	0.657700
C321	C32	0.814900	0.005700	0.782900
O281	O28	0.850500	0.756300	0.558500
N111	N11	0.741800	0.876100	0.644700
C331	C33	0.807200	0.908000	0.699800
N121	N12	0.755700	0.070400	0.815300
C341	C34	0.690800	0.034300	0.765400
H211	H21	0.649600	0.072300	0.792400
C351	C35	0.886500	0.049900	0.835600
O291	O29	0.912400	0.010300	0.957100
O301	O30	0.915600	0.124400	0.763400
H221	H22	0.165800	0.739300	0.579900
H231	H23	0.141900	0.685100	0.440300
C361	C36	0.685600	0.938900	0.672200
H241	H24	0.641400	0.920200	0.629400
Ba71	Ba7	0.477900	0.308370	0.007730
O311	O31	0.326200	0.216300	0.010700
O321	O32	0.573700	0.336100	0.781400
C371	C37	0.634000	0.329400	0.842300
C381	C38	0.685100	0.505700	0.717100
O331	O33	0.649500	0.256300	0.941500
N131	N13	0.758200	0.376100	0.855300
C391	C39	0.692800	0.408000	0.800200
N141	N14	0.744300	0.570400	0.684700
C401	C40	0.809200	0.534300	0.734600
H251	H25	0.850400	0.572300	0.707600
C411	C41	0.613500	0.549900	0.664400
O341	O34	0.587600	0.510300	0.542900
O351	O35	0.584400	0.624400	0.736600
H261	H26	0.334200	0.239300	0.920100
H271	H27	0.358100	0.185100	0.059700
C421	C42	0.814400	0.438900	0.827800
H281	H28	0.858600	0.420200	0.870600
Ba81	Ba8	0.977900	0.808370	0.007730
O361	O36	0.826200	0.716300	0.010700
O371	O37	0.073700	0.836100	0.781400
C431	C43	0.134000	0.829400	0.842300
C441	C44	0.185100	0.005700	0.717100
O381	O38	0.149500	0.756300	0.941500
N151	N15	0.258200	0.876100	0.855300
C451	C45	0.192800	0.908000	0.800200
N161	N16	0.244300	0.070400	0.684700
C461	C46	0.309200	0.034300	0.734600
H291	H29	0.350400	0.072300	0.707600
C471	C47	0.113500	0.049900	0.664400
O391	O39	0.087600	0.010300	0.542900
O401	O40	0.084400	0.124400	0.736600
H301	H30	0.834200	0.739300	0.920100
H311	H31	0.858100	0.685100	0.059700
C481	C48	0.314400	0.938900	0.827800
H321	H32	0.358600	0.920200	0.870600
Cu11	Cu1	0.750000	0.750000	0.500000
Cu21	Cu2	0.250000	0.750000	0.000000
Cu31	Cu3	0.250000	0.250000	0.500000
Cu41	Cu4	0.750000	0.250000	0.000000
