data_ZUKNAW_clean_PM
_symmetry_space_group_name_H-M	'P1'
_cell_length_a	37.689800
_cell_length_b	37.689800
_cell_length_c	14.257600
_cell_angle_alpha	90.000000
_cell_angle_beta	90.000000
_cell_angle_gamma	90.000000
_symmetry_Int_Tables_number 1

loop_
_symmetry_equiv_pos_as_xyz
'x,y,z'

loop_
_atom_site_label
_atom_site_type_symbol
_atom_site_fract_x
_atom_site_fract_y
_atom_site_fract_z
Cu11	Cu1	0.741810	0.716560	0.079920
Cu21	Cu2	0.741080	0.784020	0.044240
I11	I1	0.680930	0.750160	0.092540
I21	I2	0.798550	0.753380	0.134810
Mn11	Mn1	0.751070	0.001040	0.353180
Mo11	Mo1	0.703740	0.039590	0.182310
Mo21	Mo2	0.662570	0.006220	0.371340
Mo31	Mo3	0.709480	0.967180	0.541640
Mo41	Mo4	0.792250	0.033860	0.163070
Mo51	Mo5	0.839610	0.995710	0.334600
Mo61	Mo6	0.797810	0.962940	0.524870
O11	O1	0.710860	0.988060	0.272900
O21	O2	0.749870	0.956400	0.419200
O31	O3	0.751370	0.046290	0.287400
O41	O4	0.715310	0.018390	0.450800
O51	O5	0.792100	0.014260	0.433100
O61	O6	0.677160	0.046430	0.298700
O71	O7	0.744740	0.019410	0.125700
O81	O8	0.677190	0.964730	0.437500
O91	O9	0.823780	0.956850	0.408000
O101	O10	0.755700	0.981730	0.579700
O111	O11	0.787320	0.983680	0.255500
O121	O12	0.824990	0.037230	0.267400
N11	N1	0.737100	0.830900	0.108600
N21	N2	0.759600	0.172400	0.590200
C11	C1	0.755900	0.077390	0.343600
H11	H1	0.736200	0.094000	0.329700
H21	H2	0.778300	0.089100	0.325200
C21	C2	0.756700	0.070500	0.451300
C31	C3	0.711400	0.953300	0.228800
H31	H3	0.710500	0.956200	0.159800
H41	H4	0.690100	0.939800	0.248300
C41	C4	0.779200	0.948800	0.218200
H51	H5	0.799500	0.932800	0.231800
H61	H6	0.777100	0.950700	0.149200
C51	C5	0.788800	0.048400	0.477100
H71	H7	0.810300	0.062400	0.462000
H81	H8	0.788500	0.044800	0.545900
C61	C6	0.723100	0.053400	0.488800
H91	H9	0.725200	0.051500	0.557800
H101	H10	0.702900	0.069300	0.475100
C71	C7	0.745600	0.931900	0.256300
C81	C8	0.746300	0.924300	0.361800
H111	H11	0.724100	0.911900	0.379500
H121	H12	0.766400	0.908200	0.375700
C91	C9	0.758900	0.106800	0.497400
C101	C10	0.735900	0.862800	0.060400
H131	H13	0.733700	0.862700	0.994000
C111	C11	0.740800	0.896300	0.206300
C121	C12	0.737600	0.893700	0.106400
H141	H14	0.736700	0.915100	0.071000
C131	C13	0.735700	0.165100	0.523200
H151	H15	0.718300	0.182400	0.508200
C141	C14	0.784500	0.115100	0.563800
H161	H16	0.801800	0.097900	0.580700
C151	C15	0.735600	0.132900	0.474700
H171	H17	0.719100	0.129200	0.425400
C161	C16	0.784900	0.148200	0.605600
H181	H18	0.803900	0.154000	0.646800
C171	C17	0.739500	0.832800	0.197100
H191	H19	0.740200	0.811100	0.230800
C181	C18	0.741300	0.864200	0.249500
H201	H20	0.742800	0.863000	0.316000
Cu31	Cu3	0.258190	0.283440	0.579920
Cu41	Cu4	0.258920	0.215980	0.544240
I31	I3	0.319070	0.249840	0.592540
I41	I4	0.201450	0.246620	0.634810
Mn21	Mn2	0.248930	0.998960	0.853180
Mo71	Mo7	0.296260	0.960410	0.682310
Mo81	Mo8	0.337430	0.993780	0.871340
Mo91	Mo9	0.290520	0.032820	0.041640
Mo101	Mo10	0.207750	0.966140	0.663070
Mo111	Mo11	0.160390	0.004290	0.834600
Mo121	Mo12	0.202190	0.037060	0.024870
O131	O13	0.289140	0.011940	0.772900
O141	O14	0.250130	0.043600	0.919200
O151	O15	0.248630	0.953710	0.787400
O161	O16	0.284690	0.981610	0.950800
O171	O17	0.207900	0.985740	0.933100
O181	O18	0.322840	0.953570	0.798700
O191	O19	0.255260	0.980590	0.625700
O201	O20	0.322810	0.035270	0.937500
O211	O21	0.176220	0.043150	0.908000
O221	O22	0.244300	0.018270	0.079700
O231	O23	0.212680	0.016320	0.755500
O241	O24	0.175010	0.962770	0.767400
N31	N3	0.262900	0.169100	0.608600
N41	N4	0.240400	0.827600	0.090200
C191	C19	0.244100	0.922610	0.843600
H211	H21	0.263800	0.906000	0.829700
H221	H22	0.221700	0.910900	0.825200
C201	C20	0.243300	0.929500	0.951300
C211	C21	0.288600	0.046700	0.728800
H231	H23	0.289500	0.043800	0.659800
H241	H24	0.309900	0.060200	0.748300
C221	C22	0.220800	0.051200	0.718200
H251	H25	0.200500	0.067200	0.731800
H261	H26	0.222900	0.049300	0.649200
C231	C23	0.211200	0.951600	0.977100
H271	H27	0.189700	0.937600	0.962000
H281	H28	0.211500	0.955200	0.045900
C241	C24	0.276900	0.946600	0.988800
H291	H29	0.274800	0.948500	0.057800
H301	H30	0.297100	0.930700	0.975100
C251	C25	0.254400	0.068100	0.756300
C261	C26	0.253700	0.075700	0.861800
H311	H31	0.275900	0.088100	0.879500
H321	H32	0.233600	0.091800	0.875700
C271	C27	0.241100	0.893200	0.997400
C281	C28	0.264100	0.137200	0.560400
H331	H33	0.266300	0.137300	0.494000
C291	C29	0.259200	0.103700	0.706300
C301	C30	0.262400	0.106300	0.606400
H341	H34	0.263300	0.084900	0.571000
C311	C31	0.264300	0.834900	0.023200
H351	H35	0.281700	0.817600	0.008200
C321	C32	0.215500	0.884900	0.063800
H361	H36	0.198200	0.902100	0.080700
C331	C33	0.264400	0.867100	0.974700
H371	H37	0.280900	0.870800	0.925400
C341	C34	0.215100	0.851800	0.105600
H381	H38	0.196100	0.846000	0.146800
C351	C35	0.260500	0.167200	0.697100
H391	H39	0.259800	0.188900	0.730800
C361	C36	0.258700	0.135800	0.749500
H401	H40	0.257200	0.137000	0.816000
Cu51	Cu5	0.783440	0.241810	0.829920
Cu61	Cu6	0.715980	0.241080	0.794240
I51	I5	0.749840	0.180930	0.842540
I61	I6	0.746620	0.298550	0.884810
Mn31	Mn3	0.498960	0.251070	0.103180
Mo131	Mo13	0.460410	0.203740	0.932310
Mo141	Mo14	0.493780	0.162570	0.121340
Mo151	Mo15	0.532820	0.209480	0.291640
Mo161	Mo16	0.466140	0.292250	0.913070
Mo171	Mo17	0.504290	0.339610	0.084600
Mo181	Mo18	0.537060	0.297810	0.274870
O251	O25	0.511940	0.210860	0.022900
O261	O26	0.543600	0.249870	0.169200
O271	O27	0.453710	0.251370	0.037400
O281	O28	0.481610	0.215310	0.200800
O291	O29	0.485740	0.292100	0.183100
O301	O30	0.453570	0.177160	0.048700
O311	O31	0.480590	0.244740	0.875700
O321	O32	0.535270	0.177190	0.187500
O331	O33	0.543150	0.323780	0.158000
O341	O34	0.518270	0.255700	0.329700
O351	O35	0.516320	0.287320	0.005500
O361	O36	0.462770	0.324990	0.017400
N51	N5	0.669100	0.237100	0.858600
N61	N6	0.327600	0.259600	0.340200
C371	C37	0.422610	0.255900	0.093600
H411	H41	0.406000	0.236200	0.079700
H421	H42	0.410900	0.278300	0.075200
C381	C38	0.429500	0.256700	0.201300
C391	C39	0.546700	0.211400	0.978800
H431	H43	0.543800	0.210500	0.909800
H441	H44	0.560200	0.190100	0.998300
C401	C40	0.551200	0.279200	0.968200
H451	H45	0.567200	0.299500	0.981800
H461	H46	0.549300	0.277100	0.899200
C411	C41	0.451600	0.288800	0.227100
H471	H47	0.437600	0.310300	0.212000
H481	H48	0.455200	0.288500	0.295900
C421	C42	0.446600	0.223100	0.238800
H491	H49	0.448500	0.225200	0.307800
H501	H50	0.430700	0.202900	0.225100
C431	C43	0.568100	0.245600	0.006300
C441	C44	0.575700	0.246300	0.111800
H511	H51	0.588100	0.224100	0.129500
H521	H52	0.591800	0.266400	0.125700
C451	C45	0.393200	0.258900	0.247400
C461	C46	0.637200	0.235900	0.810400
H531	H53	0.637300	0.233700	0.744000
C471	C47	0.603700	0.240800	0.956300
C481	C48	0.606300	0.237600	0.856400
H541	H54	0.584900	0.236700	0.821000
C491	C49	0.334900	0.235700	0.273200
H551	H55	0.317600	0.218300	0.258200
C501	C50	0.384900	0.284500	0.313800
H561	H56	0.402100	0.301800	0.330700
C511	C51	0.367100	0.235600	0.224700
H571	H57	0.370800	0.219100	0.175400
C521	C52	0.351800	0.284900	0.355600
H581	H58	0.346000	0.303900	0.396800
C531	C53	0.667200	0.239500	0.947100
H591	H59	0.688900	0.240200	0.980800
C541	C54	0.635800	0.241300	0.999500
H601	H60	0.637000	0.242800	0.066000
Cu71	Cu7	0.216560	0.758190	0.329920
Cu81	Cu8	0.284020	0.758920	0.294240
I71	I7	0.250160	0.819070	0.342540
I81	I8	0.253380	0.701450	0.384810
Mn41	Mn4	0.501040	0.748930	0.603180
Mo191	Mo19	0.539590	0.796260	0.432310
Mo201	Mo20	0.506220	0.837430	0.621340
Mo211	Mo21	0.467180	0.790520	0.791640
Mo221	Mo22	0.533860	0.707750	0.413070
Mo231	Mo23	0.495710	0.660390	0.584600
Mo241	Mo24	0.462940	0.702190	0.774870
O371	O37	0.488060	0.789140	0.522900
O381	O38	0.456400	0.750130	0.669200
O391	O39	0.546290	0.748630	0.537400
O401	O40	0.518390	0.784690	0.700800
O411	O41	0.514260	0.707900	0.683100
O421	O42	0.546430	0.822840	0.548700
O431	O43	0.519410	0.755260	0.375700
O441	O44	0.464730	0.822810	0.687500
O451	O45	0.456850	0.676220	0.658000
O461	O46	0.481730	0.744300	0.829700
O471	O47	0.483680	0.712680	0.505500
O481	O48	0.537230	0.675010	0.517400
N71	N7	0.330900	0.762900	0.358600
N81	N8	0.672400	0.740400	0.840200
C551	C55	0.577390	0.744100	0.593600
H611	H61	0.594000	0.763800	0.579700
H621	H62	0.589100	0.721700	0.575200
C561	C56	0.570500	0.743300	0.701300
C571	C57	0.453300	0.788600	0.478800
H631	H63	0.456200	0.789500	0.409800
H641	H64	0.439800	0.809900	0.498300
C581	C58	0.448800	0.720800	0.468200
H651	H65	0.432800	0.700500	0.481800
H661	H66	0.450700	0.722900	0.399200
C591	C59	0.548400	0.711200	0.727100
H671	H67	0.562400	0.689700	0.712000
H681	H68	0.544800	0.711500	0.795900
C601	C60	0.553400	0.776900	0.738800
H691	H69	0.551500	0.774800	0.807800
H701	H70	0.569300	0.797100	0.725100
C611	C61	0.431900	0.754400	0.506300
C621	C62	0.424300	0.753700	0.611800
H711	H71	0.411900	0.775900	0.629500
H721	H72	0.408200	0.733600	0.625700
C631	C63	0.606800	0.741100	0.747400
C641	C64	0.362800	0.764100	0.310400
H731	H73	0.362700	0.766300	0.244000
C651	C65	0.396300	0.759200	0.456300
C661	C66	0.393700	0.762400	0.356400
H741	H74	0.415100	0.763300	0.321000
C671	C67	0.665100	0.764300	0.773200
H751	H75	0.682400	0.781700	0.758200
C681	C68	0.615100	0.715500	0.813800
H761	H76	0.597900	0.698200	0.830700
C691	C69	0.632900	0.764400	0.724700
H771	H77	0.629200	0.780900	0.675400
C701	C70	0.648200	0.715100	0.855600
H781	H78	0.654000	0.696100	0.896800
C711	C71	0.332800	0.760500	0.447100
H791	H79	0.311100	0.759800	0.480800
C721	C72	0.364200	0.758700	0.499500
H801	H80	0.363000	0.757200	0.566000
Cu91	Cu9	0.758190	0.216560	0.670080
Cu101	Cu10	0.758920	0.284020	0.705760
I91	I9	0.819070	0.250160	0.657460
I101	I10	0.701450	0.253380	0.615190
Mn51	Mn5	0.748930	0.501040	0.396820
Mo251	Mo25	0.796260	0.539590	0.567690
Mo261	Mo26	0.837430	0.506220	0.378660
Mo271	Mo27	0.790520	0.467180	0.208360
Mo281	Mo28	0.707750	0.533860	0.586930
Mo291	Mo29	0.660390	0.495710	0.415400
Mo301	Mo30	0.702190	0.462940	0.225130
O491	O49	0.789140	0.488060	0.477100
O501	O50	0.750130	0.456400	0.330800
O511	O51	0.748630	0.546290	0.462600
O521	O52	0.784690	0.518390	0.299200
O531	O53	0.707900	0.514260	0.316900
O541	O54	0.822840	0.546430	0.451300
O551	O55	0.755260	0.519410	0.624300
O561	O56	0.822810	0.464730	0.312500
O571	O57	0.676220	0.456850	0.342000
O581	O58	0.744300	0.481730	0.170300
O591	O59	0.712680	0.483680	0.494500
O601	O60	0.675010	0.537230	0.482600
N91	N9	0.762900	0.330900	0.641400
N101	N10	0.740400	0.672400	0.159800
C731	C73	0.744100	0.577390	0.406400
H811	H81	0.763800	0.594000	0.420300
H821	H82	0.721700	0.589100	0.424800
C741	C74	0.743300	0.570500	0.298700
C751	C75	0.788600	0.453300	0.521200
H831	H83	0.789500	0.456200	0.590200
H841	H84	0.809900	0.439800	0.501700
C761	C76	0.720800	0.448800	0.531800
H851	H85	0.700500	0.432800	0.518200
H861	H86	0.722900	0.450700	0.600800
C771	C77	0.711200	0.548400	0.272900
H871	H87	0.689700	0.562400	0.288000
H881	H88	0.711500	0.544800	0.204100
C781	C78	0.776900	0.553400	0.261200
H891	H89	0.774800	0.551500	0.192200
H901	H90	0.797100	0.569300	0.274900
C791	C79	0.754400	0.431900	0.493700
C801	C80	0.753700	0.424300	0.388200
H911	H91	0.775900	0.411900	0.370500
H921	H92	0.733600	0.408200	0.374300
C811	C81	0.741100	0.606800	0.252600
C821	C82	0.764100	0.362800	0.689600
H931	H93	0.766300	0.362700	0.756000
C831	C83	0.759200	0.396300	0.543700
C841	C84	0.762400	0.393700	0.643600
H941	H94	0.763300	0.415100	0.679000
C851	C85	0.764300	0.665100	0.226800
H951	H95	0.781700	0.682400	0.241800
C861	C86	0.715500	0.615100	0.186200
H961	H96	0.698200	0.597900	0.169300
C871	C87	0.764400	0.632900	0.275300
H971	H97	0.780900	0.629200	0.324600
C881	C88	0.715100	0.648200	0.144400
H981	H98	0.696100	0.654000	0.103200
C891	C89	0.760500	0.332800	0.552900
H991	H99	0.759800	0.311100	0.519200
C901	C90	0.758700	0.364200	0.500500
H1001	H100	0.757200	0.363000	0.434000
Cu111	Cu11	0.241810	0.783440	0.170080
Cu121	Cu12	0.241080	0.715980	0.205760
I111	I11	0.180930	0.749840	0.157460
I121	I12	0.298550	0.746620	0.115190
Mn61	Mn6	0.251070	0.498960	0.896820
Mo311	Mo31	0.203740	0.460410	0.067690
Mo321	Mo32	0.162570	0.493780	0.878660
Mo331	Mo33	0.209480	0.532820	0.708360
Mo341	Mo34	0.292250	0.466140	0.086930
Mo351	Mo35	0.339610	0.504290	0.915400
Mo361	Mo36	0.297810	0.537060	0.725130
O611	O61	0.210860	0.511940	0.977100
O621	O62	0.249870	0.543600	0.830800
O631	O63	0.251370	0.453710	0.962600
O641	O64	0.215310	0.481610	0.799200
O651	O65	0.292100	0.485740	0.816900
O661	O66	0.177160	0.453570	0.951300
O671	O67	0.244740	0.480590	0.124300
O681	O68	0.177190	0.535270	0.812500
O691	O69	0.323780	0.543150	0.842000
O701	O70	0.255700	0.518270	0.670300
O711	O71	0.287320	0.516320	0.994500
O721	O72	0.324990	0.462770	0.982600
N111	N11	0.237100	0.669100	0.141400
N121	N12	0.259600	0.327600	0.659800
C911	C91	0.255900	0.422610	0.906400
H1011	H101	0.236200	0.406000	0.920300
H1021	H102	0.278300	0.410900	0.924800
C921	C92	0.256700	0.429500	0.798700
C931	C93	0.211400	0.546700	0.021200
H1031	H103	0.210500	0.543800	0.090200
H1041	H104	0.190100	0.560200	0.001700
C941	C94	0.279200	0.551200	0.031800
H1051	H105	0.299500	0.567200	0.018200
H1061	H106	0.277100	0.549300	0.100800
C951	C95	0.288800	0.451600	0.772900
H1071	H107	0.310300	0.437600	0.788000
H1081	H108	0.288500	0.455200	0.704100
C961	C96	0.223100	0.446600	0.761200
H1091	H109	0.225200	0.448500	0.692200
H1101	H110	0.202900	0.430700	0.774900
C971	C97	0.245600	0.568100	0.993700
C981	C98	0.246300	0.575700	0.888200
H1111	H111	0.224100	0.588100	0.870500
H1121	H112	0.266400	0.591800	0.874300
C991	C99	0.258900	0.393200	0.752600
C1001	C100	0.235900	0.637200	0.189600
H1131	H113	0.233700	0.637300	0.256000
C1011	C101	0.240800	0.603700	0.043700
C1021	C102	0.237600	0.606300	0.143600
H1141	H114	0.236700	0.584900	0.179000
C1031	C103	0.235700	0.334900	0.726800
H1151	H115	0.218300	0.317600	0.741800
C1041	C104	0.284500	0.384900	0.686200
H1161	H116	0.301800	0.402100	0.669300
C1051	C105	0.235600	0.367100	0.775300
H1171	H117	0.219100	0.370800	0.824600
C1061	C106	0.284900	0.351800	0.644400
H1181	H118	0.303900	0.346000	0.603200
C1071	C107	0.239500	0.667200	0.052900
H1191	H119	0.240200	0.688900	0.019200
C1081	C108	0.241300	0.635800	0.000500
H1201	H120	0.242800	0.637000	0.934000
Cu131	Cu13	0.716560	0.741810	0.920080
Cu141	Cu14	0.784020	0.741080	0.955760
I131	I13	0.750160	0.680930	0.907460
I141	I14	0.753380	0.798550	0.865190
Mn71	Mn7	0.001040	0.751070	0.646820
Mo371	Mo37	0.039590	0.703740	0.817690
Mo381	Mo38	0.006220	0.662570	0.628660
Mo391	Mo39	0.967180	0.709480	0.458360
Mo401	Mo40	0.033860	0.792250	0.836930
Mo411	Mo41	0.995710	0.839610	0.665400
Mo421	Mo42	0.962940	0.797810	0.475130
O731	O73	0.988060	0.710860	0.727100
O741	O74	0.956400	0.749870	0.580800
O751	O75	0.046290	0.751370	0.712600
O761	O76	0.018390	0.715310	0.549200
O771	O77	0.014260	0.792100	0.566900
O781	O78	0.046430	0.677160	0.701300
O791	O79	0.019410	0.744740	0.874300
O801	O80	0.964730	0.677190	0.562500
O811	O81	0.956850	0.823780	0.592000
O821	O82	0.981730	0.755700	0.420300
O831	O83	0.983680	0.787320	0.744500
O841	O84	0.037230	0.824990	0.732600
N131	N13	0.830900	0.737100	0.891400
N141	N14	0.172400	0.759600	0.409800
C1091	C109	0.077390	0.755900	0.656400
H1211	H121	0.094000	0.736200	0.670300
H1221	H122	0.089100	0.778300	0.674800
C1101	C110	0.070500	0.756700	0.548700
C1111	C111	0.953300	0.711400	0.771200
H1231	H123	0.956200	0.710500	0.840200
H1241	H124	0.939800	0.690100	0.751700
C1121	C112	0.948800	0.779200	0.781800
H1251	H125	0.932800	0.799500	0.768200
H1261	H126	0.950700	0.777100	0.850800
C1131	C113	0.048400	0.788800	0.522900
H1271	H127	0.062400	0.810300	0.538000
H1281	H128	0.044800	0.788500	0.454100
C1141	C114	0.053400	0.723100	0.511200
H1291	H129	0.051500	0.725200	0.442200
H1301	H130	0.069300	0.702900	0.524900
C1151	C115	0.931900	0.745600	0.743700
C1161	C116	0.924300	0.746300	0.638200
H1311	H131	0.911900	0.724100	0.620500
H1321	H132	0.908200	0.766400	0.624300
C1171	C117	0.106800	0.758900	0.502600
C1181	C118	0.862800	0.735900	0.939600
H1331	H133	0.862700	0.733700	0.006000
C1191	C119	0.896300	0.740800	0.793700
C1201	C120	0.893700	0.737600	0.893600
H1341	H134	0.915100	0.736700	0.929000
C1211	C121	0.165100	0.735700	0.476800
H1351	H135	0.182400	0.718300	0.491800
C1221	C122	0.115100	0.784500	0.436200
H1361	H136	0.097900	0.801800	0.419300
C1231	C123	0.132900	0.735600	0.525300
H1371	H137	0.129200	0.719100	0.574600
C1241	C124	0.148200	0.784900	0.394400
H1381	H138	0.154000	0.803900	0.353200
C1251	C125	0.832800	0.739500	0.802900
H1391	H139	0.811100	0.740200	0.769200
C1261	C126	0.864200	0.741300	0.750500
H1401	H140	0.863000	0.742800	0.684000
Cu151	Cu15	0.283440	0.258190	0.420080
Cu161	Cu16	0.215980	0.258920	0.455760
I151	I15	0.249840	0.319070	0.407460
I161	I16	0.246620	0.201450	0.365190
Mn81	Mn8	0.998960	0.248930	0.146820
Mo431	Mo43	0.960410	0.296260	0.317690
Mo441	Mo44	0.993780	0.337430	0.128660
Mo451	Mo45	0.032820	0.290520	0.958360
Mo461	Mo46	0.966140	0.207750	0.336930
Mo471	Mo47	0.004290	0.160390	0.165400
Mo481	Mo48	0.037060	0.202190	0.975130
O851	O85	0.011940	0.289140	0.227100
O861	O86	0.043600	0.250130	0.080800
O871	O87	0.953710	0.248630	0.212600
O881	O88	0.981610	0.284690	0.049200
O891	O89	0.985740	0.207900	0.066900
O901	O90	0.953570	0.322840	0.201300
O911	O91	0.980590	0.255260	0.374300
O921	O92	0.035270	0.322810	0.062500
O931	O93	0.043150	0.176220	0.092000
O941	O94	0.018270	0.244300	0.920300
O951	O95	0.016320	0.212680	0.244500
O961	O96	0.962770	0.175010	0.232600
N151	N15	0.169100	0.262900	0.391400
N161	N16	0.827600	0.240400	0.909800
C1271	C127	0.922610	0.244100	0.156400
H1411	H141	0.906000	0.263800	0.170300
H1421	H142	0.910900	0.221700	0.174800
C1281	C128	0.929500	0.243300	0.048700
C1291	C129	0.046700	0.288600	0.271200
H1431	H143	0.043800	0.289500	0.340200
H1441	H144	0.060200	0.309900	0.251700
C1301	C130	0.051200	0.220800	0.281800
H1451	H145	0.067200	0.200500	0.268200
H1461	H146	0.049300	0.222900	0.350800
C1311	C131	0.951600	0.211200	0.022900
H1471	H147	0.937600	0.189700	0.038000
H1481	H148	0.955200	0.211500	0.954100
C1321	C132	0.946600	0.276900	0.011200
H1491	H149	0.948500	0.274800	0.942200
H1501	H150	0.930700	0.297100	0.024900
C1331	C133	0.068100	0.254400	0.243700
C1341	C134	0.075700	0.253700	0.138200
H1511	H151	0.088100	0.275900	0.120500
H1521	H152	0.091800	0.233600	0.124300
C1351	C135	0.893200	0.241100	0.002600
C1361	C136	0.137200	0.264100	0.439600
H1531	H153	0.137300	0.266300	0.506000
C1371	C137	0.103700	0.259200	0.293700
C1381	C138	0.106300	0.262400	0.393600
H1541	H154	0.084900	0.263300	0.429000
C1391	C139	0.834900	0.264300	0.976800
H1551	H155	0.817600	0.281700	0.991800
C1401	C140	0.884900	0.215500	0.936200
H1561	H156	0.902100	0.198200	0.919300
C1411	C141	0.867100	0.264400	0.025300
H1571	H157	0.870800	0.280900	0.074600
C1421	C142	0.851800	0.215100	0.894400
H1581	H158	0.846000	0.196100	0.853200
C1431	C143	0.167200	0.260500	0.302900
H1591	H159	0.188900	0.259800	0.269200
C1441	C144	0.135800	0.258700	0.250500
H1601	H160	0.137000	0.257200	0.184000
