data_ZULVEJ_clean_PM
_symmetry_space_group_name_H-M	'P1'
_cell_length_a	8.642000
_cell_length_b	8.719000
_cell_length_c	12.049000
_cell_angle_alpha	85.144000
_cell_angle_beta	80.757000
_cell_angle_gamma	80.710000
_symmetry_Int_Tables_number 1

loop_
_symmetry_equiv_pos_as_xyz
'x,y,z'

loop_
_atom_site_label
_atom_site_type_symbol
_atom_site_fract_x
_atom_site_fract_y
_atom_site_fract_z
P11	P1	0.163360	0.644430	0.741400
P21	P2	0.224710	0.051800	0.937300
P31	P3	0.043070	0.108710	0.637360
P41	P4	0.534950	0.154290	0.656810
Be11	Be1	0.978200	0.919800	0.841400
Be21	Be2	0.810900	0.173900	0.472600
Be31	Be3	0.222500	0.297900	0.754700
O11	O1	0.014900	0.742100	0.799000
O21	O2	0.153500	0.477000	0.775300
O31	O3	0.188300	0.670400	0.614700
O41	O4	0.310000	0.686100	0.787400
H11	H1	0.318400	0.777700	0.769900
O51	O5	0.223100	0.209100	0.876500
O61	O6	0.402000	0.965500	0.924600
H21	H2	0.404600	0.879100	0.957600
O71	O7	0.139900	0.945800	0.883900
O81	O8	0.171300	0.063200	0.061900
O91	O9	0.111800	0.239400	0.677300
O101	O10	0.931400	0.038900	0.734400
O111	O11	0.180100	0.981700	0.594600
O121	O12	0.950800	0.177900	0.543300
O131	O13	0.403300	0.286400	0.685600
O141	O14	0.469200	0.003800	0.642300
H31	H3	0.411400	0.981000	0.700200
O151	O15	0.628500	0.111900	0.757600
H41	H4	0.568300	0.086500	0.813500
O161	O16	0.641000	0.200900	0.553700
P51	P5	0.836640	0.355570	0.258600
P61	P6	0.775290	0.948200	0.062700
P71	P7	0.956930	0.891290	0.362640
P81	P8	0.465050	0.845710	0.343190
Be41	Be4	0.021800	0.080200	0.158600
Be51	Be5	0.189100	0.826100	0.527400
Be61	Be6	0.777500	0.702100	0.245300
O171	O17	0.985100	0.257900	0.201000
O181	O18	0.846500	0.523000	0.224700
O191	O19	0.811700	0.329600	0.385300
O201	O20	0.690000	0.313900	0.212600
H51	H5	0.681600	0.222300	0.230100
O211	O21	0.776900	0.790900	0.123500
O221	O22	0.598000	0.034500	0.075400
H61	H6	0.595400	0.120900	0.042400
O231	O23	0.860100	0.054200	0.116100
O241	O24	0.828700	0.936800	0.938100
O251	O25	0.888200	0.760600	0.322700
O261	O26	0.068600	0.961100	0.265600
O271	O27	0.819900	0.018300	0.405400
O281	O28	0.049200	0.822100	0.456700
O291	O29	0.596700	0.713600	0.314400
O301	O30	0.530800	0.996200	0.357700
H71	H7	0.588600	0.019000	0.299800
O311	O31	0.371500	0.888100	0.242400
H81	H8	0.431700	0.913500	0.186500
O321	O32	0.359000	0.799100	0.446300
