data_ZUMNAY_clean_PM
_symmetry_space_group_name_H-M	'P1'
_cell_length_a	6.765000
_cell_length_b	11.482000
_cell_length_c	17.858000
_cell_angle_alpha	90.000000
_cell_angle_beta	104.060000
_cell_angle_gamma	90.000000
_symmetry_Int_Tables_number 1

loop_
_symmetry_equiv_pos_as_xyz
'x,y,z'

loop_
_atom_site_label
_atom_site_type_symbol
_atom_site_fract_x
_atom_site_fract_y
_atom_site_fract_z
C11	C1	0.193500	0.936400	0.112000
C21	C2	0.219100	0.840400	0.171600
C31	C3	0.217600	0.724700	0.146300
H11	H1	0.198500	0.707700	0.094100
C41	C4	0.245400	0.635200	0.201200
C51	C5	0.270500	0.658900	0.279100
H21	H2	0.290000	0.598700	0.315000
C61	C6	0.266200	0.775100	0.302900
C71	C7	0.242000	0.864400	0.250100
H31	H3	0.240700	0.941100	0.266700
C81	C8	0.283400	0.798000	0.387800
C91	C9	0.115300	0.483900	0.112800
H41	H4	0.132000	0.530800	0.069600
H51	H5	0.978800	0.496600	0.119400
C101	C10	0.142200	0.357200	0.095900
Cd11	Cd1	0.795950	0.855580	0.972150
O11	O1	0.212500	0.041600	0.137400
O21	O2	0.162200	0.912500	0.041300
O31	O3	0.252100	0.902800	0.407300
O41	O4	0.316400	0.717300	0.435300
O51	O5	0.260700	0.518700	0.180900
O61	O6	0.017700	0.311800	0.039100
O71	O7	0.292100	0.302700	0.133600
C111	C11	0.806500	0.936400	0.388000
C121	C12	0.780900	0.840400	0.328400
C131	C13	0.782400	0.724700	0.353700
H61	H6	0.801500	0.707700	0.405900
C141	C14	0.754600	0.635200	0.298800
C151	C15	0.729500	0.658900	0.220900
H71	H7	0.710000	0.598700	0.185000
C161	C16	0.733800	0.775100	0.197100
C171	C17	0.758000	0.864400	0.249900
H81	H8	0.759300	0.941100	0.233300
C181	C18	0.716600	0.798000	0.112200
C191	C19	0.884700	0.483900	0.387200
H91	H9	0.868000	0.530800	0.430400
H101	H10	0.021200	0.496600	0.380600
C201	C20	0.857800	0.357200	0.404100
Cd21	Cd2	0.204050	0.855580	0.527850
O81	O8	0.787500	0.041600	0.362600
O91	O9	0.837800	0.912500	0.458700
O101	O10	0.747900	0.902800	0.092700
O111	O11	0.683600	0.717300	0.064700
O121	O12	0.739300	0.518700	0.319100
O131	O13	0.982300	0.311800	0.460900
O141	O14	0.707900	0.302700	0.366400
C211	C21	0.806500	0.063600	0.888000
C221	C22	0.780900	0.159600	0.828400
C231	C23	0.782400	0.275300	0.853700
H111	H11	0.801500	0.292300	0.905900
C241	C24	0.754600	0.364800	0.798800
C251	C25	0.729500	0.341100	0.720900
H121	H12	0.710000	0.401300	0.685000
C261	C26	0.733800	0.224900	0.697100
C271	C27	0.758000	0.135600	0.749900
H131	H13	0.759300	0.058900	0.733300
C281	C28	0.716600	0.202000	0.612200
C291	C29	0.884700	0.516100	0.887200
H141	H14	0.868000	0.469200	0.930400
H151	H15	0.021200	0.503400	0.880600
C301	C30	0.857800	0.642800	0.904100
Cd31	Cd3	0.204050	0.144420	0.027850
O151	O15	0.787500	0.958400	0.862600
O161	O16	0.837800	0.087500	0.958700
O171	O17	0.747900	0.097200	0.592700
O181	O18	0.683600	0.282700	0.564700
O191	O19	0.739300	0.481300	0.819100
O201	O20	0.982300	0.688200	0.960900
O211	O21	0.707900	0.697300	0.866400
C311	C31	0.193500	0.063600	0.612000
C321	C32	0.219100	0.159600	0.671600
C331	C33	0.217600	0.275300	0.646300
H161	H16	0.198500	0.292300	0.594100
C341	C34	0.245400	0.364800	0.701200
C351	C35	0.270500	0.341100	0.779100
H171	H17	0.290000	0.401300	0.815000
C361	C36	0.266200	0.224900	0.802900
C371	C37	0.242000	0.135600	0.750100
H181	H18	0.240700	0.058900	0.766700
C381	C38	0.283400	0.202000	0.887800
C391	C39	0.115300	0.516100	0.612800
H191	H19	0.132000	0.469200	0.569600
H201	H20	0.978800	0.503400	0.619400
C401	C40	0.142200	0.642800	0.595900
Cd41	Cd4	0.795950	0.144420	0.472150
O221	O22	0.212500	0.958400	0.637400
O231	O23	0.162200	0.087500	0.541300
O241	O24	0.252100	0.097200	0.907300
O251	O25	0.316400	0.282700	0.935300
O261	O26	0.260700	0.481300	0.680900
O271	O27	0.017700	0.688200	0.539100
O281	O28	0.292100	0.697300	0.633600
Cd51	Cd5	0.500000	0.351210	0.250000
Cd61	Cd6	0.500000	0.648790	0.750000
