data_ZUQMAB_clean_PM
_symmetry_space_group_name_H-M	'P1'
_cell_length_a	14.788300
_cell_length_b	19.440100
_cell_length_c	19.338600
_cell_angle_alpha	90.000000
_cell_angle_beta	99.722000
_cell_angle_gamma	90.000000
_symmetry_Int_Tables_number 1

loop_
_symmetry_equiv_pos_as_xyz
'x,y,z'

loop_
_atom_site_label
_atom_site_type_symbol
_atom_site_fract_x
_atom_site_fract_y
_atom_site_fract_z
C11	C1	0.013100	0.430900	0.301500
C21	C2	0.120500	0.532600	0.488800
C31	C3	0.318800	0.520600	0.424200
C41	C4	0.969700	0.150900	0.199100
C51	C5	0.069200	0.325300	0.248900
H11	H1	0.123700	0.348600	0.247200
C61	C6	0.998200	0.358600	0.274500
C71	C7	0.411200	0.511300	0.462700
C81	C8	0.437000	0.449100	0.496400
H21	H2	0.393000	0.414600	0.493900
C91	C9	0.978900	0.222900	0.226600
C101	C10	0.399200	0.222500	0.362300
H31	H3	0.374300	0.180300	0.371900
C111	C11	0.059000	0.258100	0.226200
H41	H4	0.107600	0.236200	0.210300
C121	C12	0.477300	0.564600	0.467100
C131	C13	0.906700	0.255100	0.252700
C141	C14	0.646500	0.492800	0.333500
C151	C15	0.523100	0.287300	0.333200
H51	H5	0.581700	0.289400	0.321800
C161	C16	0.506600	0.418100	0.322400
C171	C17	0.139100	0.372500	0.498900
H61	H6	0.186300	0.404500	0.508100
C181	C18	0.917800	0.323600	0.276400
C191	C19	0.383500	0.345200	0.351200
H71	H7	0.348800	0.385000	0.352200
C201	C20	0.003500	0.328800	0.520500
H81	H8	0.955800	0.329000	0.546200
C211	C21	0.741300	0.492600	0.354100
H91	H9	0.768900	0.451700	0.371200
C221	C22	0.536800	0.157800	0.347900
C231	C23	0.474000	0.347800	0.336500
C241	C24	0.348400	0.281200	0.364200
C251	C25	0.732900	0.991500	0.350000
H101	H10	0.744200	0.957200	0.383900
C261	C26	0.656700	0.091900	0.306700
C271	C27	0.774100	0.989100	0.293000
H111	H11	0.814700	0.953400	0.289100
C281	C28	0.487300	0.224700	0.346200
C291	C29	0.701600	0.086300	0.250400
H121	H12	0.691400	0.119800	0.215700
C301	C30	0.673900	0.044700	0.358200
H131	H13	0.646800	0.047900	0.398100
C311	C31	0.753700	0.605500	0.326100
H141	H14	0.789500	0.644300	0.322800
C321	C32	0.605500	0.553200	0.309800
H151	H15	0.542100	0.555800	0.296800
C331	C33	0.659200	0.610200	0.305200
H161	H16	0.632500	0.651500	0.288400
C341	C34	0.142200	0.324500	0.445700
C351	C35	0.069500	0.279500	0.428200
H171	H17	0.067400	0.248900	0.391000
C361	C36	0.000000	0.281700	0.467600
H181	H18	0.951000	0.251200	0.458300
C371	C37	0.257600	0.271700	0.385800
Co11	Co1	0.941350	0.544240	0.387530
Co21	Co2	0.165600	0.534890	0.343400
H191	H19	0.196000	0.537000	0.499000
N11	N1	0.071800	0.375100	0.537600
N21	N2	0.218500	0.327300	0.410600
H201	H20	0.241600	0.367000	0.404500
N31	N3	0.795000	0.546900	0.350900
N41	N4	0.599800	0.430900	0.340300
H211	H21	0.633200	0.396800	0.357700
N51	N5	0.759300	0.034900	0.243000
N61	N6	0.600700	0.150400	0.308600
H221	H22	0.608900	0.184100	0.281700
N71	N7	0.458300	0.629200	0.440100
H231	H23	0.499900	0.660600	0.446200
H241	H24	0.404700	0.638500	0.417100
N81	N8	0.844800	0.350700	0.298100
H251	H25	0.846200	0.392800	0.312100
H261	H26	0.796400	0.326300	0.298100
N91	N9	0.825600	0.228800	0.264600
H271	H27	0.812800	0.186200	0.255800
H281	H28	0.787100	0.254800	0.281000
O11	O1	0.517800	0.110700	0.385800
O21	O2	0.223200	0.213800	0.387700
O31	O3	0.453400	0.463300	0.297200
O41	O4	0.038500	0.121840	0.180180
O51	O5	0.890200	0.124080	0.194700
O61	O6	0.948000	0.461990	0.321080
O71	O7	0.091400	0.456490	0.299400
O81	O8	0.265700	0.468520	0.407910
O91	O9	0.288000	0.580220	0.404660
O101	O10	0.085400	0.540140	0.426000
O111	O11	0.080600	0.531810	0.540470
C381	C38	0.986900	0.930900	0.198500
C391	C39	0.879500	0.032600	0.011200
C401	C40	0.681200	0.020600	0.075800
C411	C41	0.030300	0.650900	0.300900
C421	C42	0.930800	0.825300	0.251100
H291	H29	0.876300	0.848600	0.252800
C431	C43	0.001800	0.858600	0.225500
C441	C44	0.588800	0.011300	0.037300
C451	C45	0.563000	0.949100	0.003600
H301	H30	0.607000	0.914600	0.006100
C461	C46	0.021100	0.722900	0.273400
C471	C47	0.600800	0.722500	0.137700
H311	H31	0.625700	0.680300	0.128100
C481	C48	0.941000	0.758100	0.273800
H321	H32	0.892400	0.736200	0.289700
C491	C49	0.522700	0.064600	0.032900
C501	C50	0.093300	0.755100	0.247300
C511	C51	0.353500	0.992800	0.166500
C521	C52	0.476900	0.787300	0.166800
H331	H33	0.418300	0.789400	0.178200
C531	C53	0.493400	0.918100	0.177600
C541	C54	0.860900	0.872500	0.001100
H341	H34	0.813700	0.904500	0.991900
C551	C55	0.082200	0.823600	0.223600
C561	C56	0.616500	0.845200	0.148800
H351	H35	0.651200	0.885000	0.147800
C571	C57	0.996500	0.828800	0.979500
H361	H36	0.044200	0.829000	0.953800
C581	C58	0.258700	0.992600	0.145900
H371	H37	0.231100	0.951700	0.128800
C591	C59	0.463200	0.657800	0.152100
C601	C60	0.526000	0.847800	0.163500
C611	C61	0.651600	0.781200	0.135800
C621	C62	0.267100	0.491500	0.150000
H381	H38	0.255800	0.457200	0.116100
C631	C63	0.343300	0.591900	0.193300
C641	C64	0.225900	0.489100	0.207000
H391	H39	0.185300	0.453400	0.210900
C651	C65	0.512700	0.724700	0.153800
C661	C66	0.298400	0.586300	0.249600
H401	H40	0.308600	0.619800	0.284300
C671	C67	0.326100	0.544700	0.141800
H411	H41	0.353200	0.547900	0.101900
C681	C68	0.246300	0.105500	0.173900
H421	H42	0.210500	0.144300	0.177200
C691	C69	0.394500	0.053200	0.190200
H431	H43	0.457900	0.055800	0.203200
C701	C70	0.340800	0.110200	0.194800
H441	H44	0.367500	0.151500	0.211600
C711	C71	0.857800	0.824500	0.054300
C721	C72	0.930500	0.779500	0.071800
H451	H45	0.932600	0.748900	0.109000
C731	C73	0.000000	0.781700	0.032400
H461	H46	0.049000	0.751200	0.041700
C741	C74	0.742400	0.771700	0.114200
Co31	Co3	0.058650	0.044240	0.112470
Co41	Co4	0.834400	0.034890	0.156600
H471	H47	0.804000	0.037000	0.001000
N101	N10	0.928200	0.875100	0.962400
N111	N11	0.781500	0.827300	0.089400
H481	H48	0.758400	0.867000	0.095500
N121	N12	0.205000	0.046900	0.149100
N131	N13	0.400200	0.930900	0.159700
H491	H49	0.366800	0.896800	0.142300
N141	N14	0.240700	0.534900	0.257000
N151	N15	0.399300	0.650400	0.191400
H501	H50	0.391100	0.684100	0.218300
N161	N16	0.541700	0.129200	0.059900
H511	H51	0.500100	0.160600	0.053800
H521	H52	0.595300	0.138500	0.082900
N171	N17	0.155200	0.850700	0.201900
H531	H53	0.153800	0.892800	0.187900
H541	H54	0.203600	0.826300	0.201900
N181	N18	0.174400	0.728800	0.235400
H551	H55	0.187200	0.686200	0.244200
H561	H56	0.212900	0.754800	0.219000
O121	O12	0.482200	0.610700	0.114200
O131	O13	0.776800	0.713800	0.112300
O141	O14	0.546600	0.963300	0.202800
O151	O15	0.961500	0.621840	0.319820
O161	O16	0.109800	0.624080	0.305300
O171	O17	0.052000	0.961990	0.178920
O181	O18	0.908600	0.956490	0.200600
O191	O19	0.734300	0.968520	0.092090
O201	O20	0.712000	0.080220	0.095340
O211	O21	0.914600	0.040140	0.074000
O221	O22	0.919400	0.031810	0.959530
C751	C75	0.986900	0.569100	0.698500
C761	C76	0.879500	0.467400	0.511200
C771	C77	0.681200	0.479400	0.575800
C781	C78	0.030300	0.849100	0.800900
C791	C79	0.930800	0.674700	0.751100
H571	H57	0.876300	0.651400	0.752800
C801	C80	0.001800	0.641400	0.725500
C811	C81	0.588800	0.488700	0.537300
C821	C82	0.563000	0.550900	0.503600
H581	H58	0.607000	0.585400	0.506100
C831	C83	0.021100	0.777100	0.773400
C841	C84	0.600800	0.777500	0.637700
H591	H59	0.625700	0.819700	0.628100
C851	C85	0.941000	0.741900	0.773800
H601	H60	0.892400	0.763800	0.789700
C861	C86	0.522700	0.435400	0.532900
C871	C87	0.093300	0.744900	0.747300
C881	C88	0.353500	0.507200	0.666500
C891	C89	0.476900	0.712700	0.666800
H611	H61	0.418300	0.710600	0.678200
C901	C90	0.493400	0.581900	0.677600
C911	C91	0.860900	0.627500	0.501100
H621	H62	0.813700	0.595500	0.491900
C921	C92	0.082200	0.676400	0.723600
C931	C93	0.616500	0.654800	0.648800
H631	H63	0.651200	0.615000	0.647800
C941	C94	0.996500	0.671200	0.479500
H641	H64	0.044200	0.671000	0.453800
C951	C95	0.258700	0.507400	0.645900
H651	H65	0.231100	0.548300	0.628800
C961	C96	0.463200	0.842200	0.652100
C971	C97	0.526000	0.652200	0.663500
C981	C98	0.651600	0.718800	0.635800
C991	C99	0.267100	0.008500	0.650000
H661	H66	0.255800	0.042800	0.616100
C1001	C100	0.343300	0.908100	0.693300
C1011	C101	0.225900	0.010900	0.707000
H671	H67	0.185300	0.046600	0.710900
C1021	C102	0.512700	0.775300	0.653800
C1031	C103	0.298400	0.913700	0.749600
H681	H68	0.308600	0.880200	0.784300
C1041	C104	0.326100	0.955300	0.641800
H691	H69	0.353200	0.952100	0.601900
C1051	C105	0.246300	0.394500	0.673900
H701	H70	0.210500	0.355700	0.677200
C1061	C106	0.394500	0.446800	0.690200
H711	H71	0.457900	0.444200	0.703200
C1071	C107	0.340800	0.389800	0.694800
H721	H72	0.367500	0.348500	0.711600
C1081	C108	0.857800	0.675500	0.554300
C1091	C109	0.930500	0.720500	0.571800
H731	H73	0.932600	0.751100	0.609000
C1101	C110	0.000000	0.718300	0.532400
H741	H74	0.049000	0.748800	0.541700
C1111	C111	0.742400	0.728300	0.614200
Co51	Co5	0.058650	0.455760	0.612470
Co61	Co6	0.834400	0.465110	0.656600
H751	H75	0.804000	0.463000	0.501000
N191	N19	0.928200	0.624900	0.462400
N201	N20	0.781500	0.672700	0.589400
H761	H76	0.758400	0.633000	0.595500
N211	N21	0.205000	0.453100	0.649100
N221	N22	0.400200	0.569100	0.659700
H771	H77	0.366800	0.603200	0.642300
N231	N23	0.240700	0.965100	0.757000
N241	N24	0.399300	0.849600	0.691400
H781	H78	0.391100	0.815900	0.718300
N251	N25	0.541700	0.370800	0.559900
H791	H79	0.500100	0.339400	0.553800
H801	H80	0.595300	0.361500	0.582900
N261	N26	0.155200	0.649300	0.701900
H811	H81	0.153800	0.607200	0.687900
H821	H82	0.203600	0.673700	0.701900
N271	N27	0.174400	0.771200	0.735400
H831	H83	0.187200	0.813800	0.744200
H841	H84	0.212900	0.745200	0.719000
O231	O23	0.482200	0.889300	0.614200
O241	O24	0.776800	0.786200	0.612300
O251	O25	0.546600	0.536700	0.702800
O261	O26	0.961500	0.878160	0.819820
O271	O27	0.109800	0.875920	0.805300
O281	O28	0.052000	0.538010	0.678920
O291	O29	0.908600	0.543510	0.700600
O301	O30	0.734300	0.531480	0.592090
O311	O31	0.712000	0.419780	0.595340
O321	O32	0.914600	0.459860	0.574000
O331	O33	0.919400	0.468190	0.459530
C1121	C112	0.013100	0.069100	0.801500
C1131	C113	0.120500	0.967400	0.988800
C1141	C114	0.318800	0.979400	0.924200
C1151	C115	0.969700	0.349100	0.699100
C1161	C116	0.069200	0.174700	0.748900
H851	H85	0.123700	0.151400	0.747200
C1171	C117	0.998200	0.141400	0.774500
C1181	C118	0.411200	0.988700	0.962700
C1191	C119	0.437000	0.050900	0.996400
H861	H86	0.393000	0.085400	0.993900
C1201	C120	0.978900	0.277100	0.726600
C1211	C121	0.399200	0.277500	0.862300
H871	H87	0.374300	0.319700	0.871900
C1221	C122	0.059000	0.241900	0.726200
H881	H88	0.107600	0.263800	0.710300
C1231	C123	0.477300	0.935400	0.967100
C1241	C124	0.906700	0.244900	0.752700
C1251	C125	0.646500	0.007200	0.833500
C1261	C126	0.523100	0.212700	0.833200
H891	H89	0.581700	0.210600	0.821800
C1271	C127	0.506600	0.081900	0.822400
C1281	C128	0.139100	0.127500	0.998900
H901	H90	0.186300	0.095500	0.008100
C1291	C129	0.917800	0.176400	0.776400
C1301	C130	0.383500	0.154800	0.851200
H911	H91	0.348800	0.115000	0.852200
C1311	C131	0.003500	0.171200	0.020500
H921	H92	0.955800	0.171000	0.046200
C1321	C132	0.741300	0.007400	0.854100
H931	H93	0.768900	0.048300	0.871200
C1331	C133	0.536800	0.342200	0.847900
C1341	C134	0.474000	0.152200	0.836500
C1351	C135	0.348400	0.218800	0.864200
C1361	C136	0.732900	0.508500	0.850000
H941	H94	0.744200	0.542800	0.883900
C1371	C137	0.656700	0.408100	0.806700
C1381	C138	0.774100	0.510900	0.793000
H951	H95	0.814700	0.546600	0.789100
C1391	C139	0.487300	0.275300	0.846200
C1401	C140	0.701600	0.413700	0.750400
H961	H96	0.691400	0.380200	0.715700
C1411	C141	0.673900	0.455300	0.858200
H971	H97	0.646800	0.452100	0.898100
C1421	C142	0.753700	0.894500	0.826100
H981	H98	0.789500	0.855700	0.822800
C1431	C143	0.605500	0.946800	0.809800
H991	H99	0.542100	0.944200	0.796800
C1441	C144	0.659200	0.889800	0.805200
H1001	H100	0.632500	0.848500	0.788400
C1451	C145	0.142200	0.175500	0.945700
C1461	C146	0.069500	0.220500	0.928200
H1011	H101	0.067400	0.251100	0.891000
C1471	C147	0.000000	0.218300	0.967600
H1021	H102	0.951000	0.248800	0.958300
C1481	C148	0.257600	0.228300	0.885800
Co71	Co7	0.941350	0.955760	0.887530
Co81	Co8	0.165600	0.965110	0.843400
H1031	H103	0.196000	0.963000	0.999000
N281	N28	0.071800	0.124900	0.037600
N291	N29	0.218500	0.172700	0.910600
H1041	H104	0.241600	0.133000	0.904500
N301	N30	0.795000	0.953100	0.850900
N311	N31	0.599800	0.069100	0.840300
H1051	H105	0.633200	0.103200	0.857700
N321	N32	0.759300	0.465100	0.743000
N331	N33	0.600700	0.349600	0.808600
H1061	H106	0.608900	0.315900	0.781700
N341	N34	0.458300	0.870800	0.940100
H1071	H107	0.499900	0.839400	0.946200
H1081	H108	0.404700	0.861500	0.917100
N351	N35	0.844800	0.149300	0.798100
H1091	H109	0.846200	0.107200	0.812100
H1101	H110	0.796400	0.173700	0.798100
N361	N36	0.825600	0.271200	0.764600
H1111	H111	0.812800	0.313800	0.755800
H1121	H112	0.787100	0.245200	0.781000
O341	O34	0.517800	0.389300	0.885800
O351	O35	0.223200	0.286200	0.887700
O361	O36	0.453400	0.036700	0.797200
O371	O37	0.038500	0.378160	0.680180
O381	O38	0.890200	0.375920	0.694700
O391	O39	0.948000	0.038010	0.821080
O401	O40	0.091400	0.043510	0.799400
O411	O41	0.265700	0.031480	0.907910
O421	O42	0.288000	0.919780	0.904660
O431	O43	0.085400	0.959860	0.926000
O441	O44	0.080600	0.968190	0.040470
