data_ZUSBOG_clean_PM
_symmetry_space_group_name_H-M	'P1'
_cell_length_a	14.736700
_cell_length_b	9.576300
_cell_length_c	9.892000
_cell_angle_alpha	90.000000
_cell_angle_beta	101.474000
_cell_angle_gamma	90.000000
_symmetry_Int_Tables_number 1

loop_
_symmetry_equiv_pos_as_xyz
'x,y,z'

loop_
_atom_site_label
_atom_site_type_symbol
_atom_site_fract_x
_atom_site_fract_y
_atom_site_fract_z
Zn11	Zn1	0.087280	0.073610	0.636780
C11	C1	0.267800	0.096400	0.727400
C21	C2	0.363300	0.073100	0.819000
C31	C3	0.372600	0.991400	0.931600
H11	H1	0.320400	0.950000	0.953800
C41	C4	0.461200	0.967300	0.017500
C51	C5	0.440700	0.140400	0.784900
H21	H2	0.433500	0.199100	0.708500
C61	C6	0.005500	0.832600	0.767600
H31	H3	0.042600	0.849400	0.853700
C71	C7	0.907700	0.743500	0.608600
H41	H4	0.862400	0.685000	0.559500
N11	N1	0.006200	0.909800	0.659600
N21	N2	0.941300	0.852300	0.554500
N31	N3	0.945500	0.726200	0.741700
O11	O1	0.206100	0.009400	0.744400
O21	O2	0.255000	0.194200	0.648000
C81	C8	0.526200	0.118900	0.864500
H51	H5	0.577400	0.161900	0.840700
Zn21	Zn2	0.912720	0.573610	0.863220
C91	C9	0.732200	0.596400	0.772600
C101	C10	0.636700	0.573100	0.681000
C111	C11	0.627400	0.491400	0.568400
H61	H6	0.679600	0.450000	0.546200
C121	C12	0.538800	0.467300	0.482500
C131	C13	0.559300	0.640400	0.715100
H71	H7	0.566500	0.699100	0.791500
C141	C14	0.994500	0.332600	0.732400
H81	H8	0.957400	0.349400	0.646300
C151	C15	0.092300	0.243500	0.891400
H91	H9	0.137600	0.185000	0.940500
N41	N4	0.993800	0.409800	0.840400
N51	N5	0.058700	0.352300	0.945500
N61	N6	0.054500	0.226200	0.758300
O31	O3	0.793900	0.509400	0.755600
O41	O4	0.745000	0.694200	0.852000
C161	C16	0.473800	0.618900	0.635500
H101	H10	0.422600	0.661900	0.659300
Zn31	Zn3	0.912720	0.926390	0.363220
C171	C17	0.732200	0.903600	0.272600
C181	C18	0.636700	0.926900	0.181000
C191	C19	0.627400	0.008600	0.068400
H111	H11	0.679600	0.050000	0.046200
C201	C20	0.538800	0.032700	0.982500
C211	C21	0.559300	0.859600	0.215100
H121	H12	0.566500	0.800900	0.291500
C221	C22	0.994500	0.167400	0.232400
H131	H13	0.957400	0.150600	0.146300
C231	C23	0.092300	0.256500	0.391400
H141	H14	0.137600	0.315000	0.440500
N71	N7	0.993800	0.090200	0.340400
N81	N8	0.058700	0.147700	0.445500
N91	N9	0.054500	0.273800	0.258300
O51	O5	0.793900	0.990600	0.255600
O61	O6	0.745000	0.805800	0.352000
C241	C24	0.473800	0.881100	0.135500
H151	H15	0.422600	0.838100	0.159300
Zn41	Zn4	0.087280	0.426390	0.136780
C251	C25	0.267800	0.403600	0.227400
C261	C26	0.363300	0.426900	0.319000
C271	C27	0.372600	0.508600	0.431600
H161	H16	0.320400	0.550000	0.453800
C281	C28	0.461200	0.532700	0.517500
C291	C29	0.440700	0.359600	0.284900
H171	H17	0.433500	0.300900	0.208500
C301	C30	0.005500	0.667400	0.267600
H181	H18	0.042600	0.650600	0.353700
C311	C31	0.907700	0.756500	0.108600
H191	H19	0.862400	0.815000	0.059500
N101	N10	0.006200	0.590200	0.159600
N111	N11	0.941300	0.647700	0.054500
N121	N12	0.945500	0.773800	0.241700
O71	O7	0.206100	0.490600	0.244400
O81	O8	0.255000	0.305800	0.148000
C321	C32	0.526200	0.381100	0.364500
H201	H20	0.577400	0.338100	0.340700
