data_ZUSBIA_clean_PM
_symmetry_space_group_name_H-M	'P1'
_cell_length_a	10.089300
_cell_length_b	26.521200
_cell_length_c	9.789800
_cell_angle_alpha	90.000000
_cell_angle_beta	90.000000
_cell_angle_gamma	90.000000
_symmetry_Int_Tables_number 1

loop_
_symmetry_equiv_pos_as_xyz
'x,y,z'

loop_
_atom_site_label
_atom_site_type_symbol
_atom_site_fract_x
_atom_site_fract_y
_atom_site_fract_z
Zn11	Zn1	0.884480	0.544150	0.086670
C11	C1	0.868100	0.640410	0.121500
C21	C2	0.852700	0.696930	0.118400
C31	C3	0.747400	0.722930	0.049900
C41	C4	0.641200	0.697480	0.987600
H11	H1	0.639300	0.662400	0.987600
C51	C5	0.541000	0.723710	0.927000
H21	H2	0.471900	0.706400	0.885200
C61	C6	0.947800	0.723650	0.185700
H31	H3	0.014100	0.706500	0.232500
C71	C7	0.760300	0.492280	0.335000
H41	H4	0.835700	0.473700	0.355900
C81	C8	0.625800	0.540800	0.236700
H51	H5	0.588200	0.563000	0.174100
N11	N1	0.748500	0.521870	0.224300
N21	N2	0.564900	0.524800	0.345900
N31	N3	0.652100	0.492820	0.410400
O11	O1	0.830700	0.613760	0.021900
O21	O2	0.922100	0.620730	0.220600
Zn21	Zn2	0.615520	0.455850	0.586670
C91	C9	0.631900	0.359590	0.621500
C101	C10	0.647300	0.303070	0.618400
C111	C11	0.752600	0.277070	0.549900
C121	C12	0.858800	0.302520	0.487600
H61	H6	0.860700	0.337600	0.487600
C131	C13	0.959000	0.276290	0.427000
H71	H7	0.028100	0.293600	0.385200
C141	C14	0.552200	0.276350	0.685700
H81	H8	0.485900	0.293500	0.732500
C151	C15	0.739700	0.507720	0.835000
H91	H9	0.664300	0.526300	0.855900
C161	C16	0.874200	0.459200	0.736700
H101	H10	0.911800	0.437000	0.674100
N41	N4	0.751500	0.478130	0.724300
N51	N5	0.935100	0.475200	0.845900
N61	N6	0.847900	0.507180	0.910400
O31	O3	0.669300	0.386240	0.521900
O41	O4	0.577900	0.379270	0.720600
Zn31	Zn3	0.115520	0.044150	0.913330
C171	C17	0.131900	0.140410	0.878500
C181	C18	0.147300	0.196930	0.881600
C191	C19	0.252600	0.222930	0.950100
C201	C20	0.358800	0.197480	0.012400
H111	H11	0.360700	0.162400	0.012400
C211	C21	0.459000	0.223710	0.073000
H121	H12	0.528100	0.206400	0.114800
C221	C22	0.052200	0.223650	0.814300
H131	H13	0.985900	0.206500	0.767500
C231	C23	0.239700	0.992280	0.665000
H141	H14	0.164300	0.973700	0.644100
C241	C24	0.374200	0.040800	0.763300
H151	H15	0.411800	0.063000	0.825900
N71	N7	0.251500	0.021870	0.775700
N81	N8	0.435100	0.024800	0.654100
N91	N9	0.347900	0.992820	0.589600
O51	O5	0.169300	0.113760	0.978100
O61	O6	0.077900	0.120730	0.779400
Zn41	Zn4	0.384480	0.955850	0.413330
C251	C25	0.368100	0.859590	0.378500
C261	C26	0.352700	0.803070	0.381600
C271	C27	0.247400	0.777070	0.450100
C281	C28	0.141200	0.802520	0.512400
H161	H16	0.139300	0.837600	0.512400
C291	C29	0.041000	0.776290	0.573000
H171	H17	0.971900	0.793600	0.614800
C301	C30	0.447800	0.776350	0.314300
H181	H18	0.514100	0.793500	0.267500
C311	C31	0.260300	0.007720	0.165000
H191	H19	0.335700	0.026300	0.144100
C321	C32	0.125800	0.959200	0.263300
H201	H20	0.088200	0.937000	0.325900
N101	N10	0.248500	0.978130	0.275700
N111	N11	0.064900	0.975200	0.154100
N121	N12	0.152100	0.007180	0.089600
O71	O7	0.330700	0.886240	0.478100
O81	O8	0.422100	0.879270	0.279400
Zn51	Zn5	0.115520	0.455850	0.913330
C331	C33	0.131900	0.359590	0.878500
C341	C34	0.147300	0.303070	0.881600
C351	C35	0.252600	0.277070	0.950100
C361	C36	0.358800	0.302520	0.012400
H211	H21	0.360700	0.337600	0.012400
C371	C37	0.459000	0.276290	0.073000
H221	H22	0.528100	0.293600	0.114800
C381	C38	0.052200	0.276350	0.814300
H231	H23	0.985900	0.293500	0.767500
C391	C39	0.239700	0.507720	0.665000
H241	H24	0.164300	0.526300	0.644100
C401	C40	0.374200	0.459200	0.763300
H251	H25	0.411800	0.437000	0.825900
N131	N13	0.251500	0.478130	0.775700
N141	N14	0.435100	0.475200	0.654100
N151	N15	0.347900	0.507180	0.589600
O91	O9	0.169300	0.386240	0.978100
O101	O10	0.077900	0.379270	0.779400
Zn61	Zn6	0.384480	0.544150	0.413330
C411	C41	0.368100	0.640410	0.378500
C421	C42	0.352700	0.696930	0.381600
C431	C43	0.247400	0.722930	0.450100
C441	C44	0.141200	0.697480	0.512400
H261	H26	0.139300	0.662400	0.512400
C451	C45	0.041000	0.723710	0.573000
H271	H27	0.971900	0.706400	0.614800
C461	C46	0.447800	0.723650	0.314300
H281	H28	0.514100	0.706500	0.267500
C471	C47	0.260300	0.492280	0.165000
H291	H29	0.335700	0.473700	0.144100
C481	C48	0.125800	0.540800	0.263300
H301	H30	0.088200	0.563000	0.325900
N161	N16	0.248500	0.521870	0.275700
N171	N17	0.064900	0.524800	0.154100
N181	N18	0.152100	0.492820	0.089600
O111	O11	0.330700	0.613760	0.478100
O121	O12	0.422100	0.620730	0.279400
Zn71	Zn7	0.884480	0.955850	0.086670
C491	C49	0.868100	0.859590	0.121500
C501	C50	0.852700	0.803070	0.118400
C511	C51	0.747400	0.777070	0.049900
C521	C52	0.641200	0.802520	0.987600
H311	H31	0.639300	0.837600	0.987600
C531	C53	0.541000	0.776290	0.927000
H321	H32	0.471900	0.793600	0.885200
C541	C54	0.947800	0.776350	0.185700
H331	H33	0.014100	0.793500	0.232500
C551	C55	0.760300	0.007720	0.335000
H341	H34	0.835700	0.026300	0.355900
C561	C56	0.625800	0.959200	0.236700
H351	H35	0.588200	0.937000	0.174100
N191	N19	0.748500	0.978130	0.224300
N201	N20	0.564900	0.975200	0.345900
N211	N21	0.652100	0.007180	0.410400
O131	O13	0.830700	0.886240	0.021900
O141	O14	0.922100	0.879270	0.220600
Zn81	Zn8	0.615520	0.044150	0.586670
C571	C57	0.631900	0.140410	0.621500
C581	C58	0.647300	0.196930	0.618400
C591	C59	0.752600	0.222930	0.549900
C601	C60	0.858800	0.197480	0.487600
H361	H36	0.860700	0.162400	0.487600
C611	C61	0.959000	0.223710	0.427000
H371	H37	0.028100	0.206400	0.385200
C621	C62	0.552200	0.223650	0.685700
H381	H38	0.485900	0.206500	0.732500
C631	C63	0.739700	0.992280	0.835000
H391	H39	0.664300	0.973700	0.855900
C641	C64	0.874200	0.040800	0.736700
H401	H40	0.911800	0.063000	0.674100
N221	N22	0.751500	0.021870	0.724300
N231	N23	0.935100	0.024800	0.845900
N241	N24	0.847900	0.992820	0.910400
O151	O15	0.669300	0.113760	0.521900
O161	O16	0.577900	0.120730	0.720600
