data_ZUVTEP_clean_PM
_symmetry_space_group_name_H-M	'P1'
_cell_length_a	9.507000
_cell_length_b	9.507000
_cell_length_c	17.443000
_cell_angle_alpha	90.000000
_cell_angle_beta	90.000000
_cell_angle_gamma	120.000000
_symmetry_Int_Tables_number 1

loop_
_symmetry_equiv_pos_as_xyz
'x,y,z'

loop_
_atom_site_label
_atom_site_type_symbol
_atom_site_fract_x
_atom_site_fract_y
_atom_site_fract_z
C11	C1	0.350100	0.185000	0.104600
C21	C2	0.400900	0.094100	0.051400
O11	O1	0.450000	0.270500	0.154900
O21	O2	0.214600	0.172800	0.095300
H11	H1	0.430700	0.027900	0.081000
H21	H2	0.494700	0.169700	0.022700
C31	C3	0.815000	0.165100	0.104600
C41	C4	0.905900	0.306800	0.051400
O31	O3	0.729500	0.179500	0.154900
O41	O4	0.827200	0.041800	0.095300
H31	H3	0.972100	0.402800	0.081000
H41	H4	0.830300	0.325000	0.022700
C51	C5	0.834900	0.649900	0.104600
C61	C6	0.693200	0.599100	0.051400
O51	O5	0.820500	0.550000	0.154900
O61	O6	0.958200	0.785400	0.095300
H51	H5	0.597200	0.569300	0.081000
H61	H6	0.675000	0.505300	0.022700
C71	C7	0.350100	0.185000	0.395400
C81	C8	0.400900	0.094100	0.448600
O71	O7	0.450000	0.270500	0.345100
O81	O8	0.214600	0.172800	0.404700
H71	H7	0.430700	0.027900	0.419000
H81	H8	0.494700	0.169700	0.477300
C91	C9	0.815000	0.165100	0.395400
C101	C10	0.905900	0.306800	0.448600
O91	O9	0.729500	0.179500	0.345100
O101	O10	0.827200	0.041800	0.404700
H91	H9	0.972100	0.402800	0.419000
H101	H10	0.830300	0.325000	0.477300
C111	C11	0.834900	0.649900	0.395400
C121	C12	0.693200	0.599100	0.448600
O111	O11	0.820500	0.550000	0.345100
O121	O12	0.958200	0.785400	0.404700
H111	H11	0.597200	0.569300	0.419000
H121	H12	0.675000	0.505300	0.477300
C131	C13	0.185000	0.350100	0.895400
C141	C14	0.094100	0.400900	0.948600
O131	O13	0.270500	0.450000	0.845100
O141	O14	0.172800	0.214600	0.904700
H131	H13	0.027900	0.430700	0.919000
H141	H14	0.169700	0.494700	0.977300
C151	C15	0.165100	0.815000	0.895400
C161	C16	0.306800	0.905900	0.948600
O151	O15	0.179500	0.729500	0.845100
O161	O16	0.041800	0.827200	0.904700
H151	H15	0.402800	0.972100	0.919000
H161	H16	0.325000	0.830300	0.977300
C171	C17	0.649900	0.834900	0.895400
C181	C18	0.599100	0.693200	0.948600
O171	O17	0.550000	0.820500	0.845100
O181	O18	0.785400	0.958200	0.904700
H171	H17	0.569300	0.597200	0.919000
H181	H18	0.505300	0.675000	0.977300
C191	C19	0.185000	0.350100	0.604600
C201	C20	0.094100	0.400900	0.551400
O191	O19	0.270500	0.450000	0.654900
O201	O20	0.172800	0.214600	0.595300
H191	H19	0.027900	0.430700	0.581000
H201	H20	0.169700	0.494700	0.522700
C211	C21	0.165100	0.815000	0.604600
C221	C22	0.306800	0.905900	0.551400
O211	O21	0.179500	0.729500	0.654900
O221	O22	0.041800	0.827200	0.595300
H211	H21	0.402800	0.972100	0.581000
H221	H22	0.325000	0.830300	0.522700
C231	C23	0.649900	0.834900	0.604600
C241	C24	0.599100	0.693200	0.551400
O231	O23	0.550000	0.820500	0.654900
O241	O24	0.785400	0.958200	0.595300
H231	H23	0.569300	0.597200	0.581000
H241	H24	0.505300	0.675000	0.522700
La11	La1	0.666670	0.333330	0.250000
La21	La2	0.333330	0.666670	0.750000
La31	La3	0.000000	0.000000	0.000000
La41	La4	0.000000	0.000000	0.500000
O251	O25	0.271600	0.000000	0.000000
O261	O26	0.000000	0.271600	0.000000
O271	O27	0.728400	0.728400	0.000000
O281	O28	0.271600	0.000000	0.500000
O291	O29	0.000000	0.271600	0.500000
O301	O30	0.728400	0.728400	0.500000
