data_ZUWXUM_clean_PM
_symmetry_space_group_name_H-M	'P1'
_cell_length_a	20.403100
_cell_length_b	20.403100
_cell_length_c	20.403100
_cell_angle_alpha	90.000000
_cell_angle_beta	90.000000
_cell_angle_gamma	90.000000
_symmetry_Int_Tables_number 1

loop_
_symmetry_equiv_pos_as_xyz
'x,y,z'

loop_
_atom_site_label
_atom_site_type_symbol
_atom_site_fract_x
_atom_site_fract_y
_atom_site_fract_z
O11	O1	0.585900	0.946000	0.667800
O21	O2	0.531900	0.036400	0.686500
C11	C1	0.539300	0.985200	0.654800
C21	C2	0.495500	0.969100	0.598300
C31	C3	0.443100	0.009700	0.583600
H11	H1	0.435400	0.046700	0.609100
O31	O3	0.085900	0.446000	0.167800
O41	O4	0.031900	0.536400	0.186500
C41	C4	0.039300	0.485200	0.154800
C51	C5	0.995500	0.469100	0.098300
C61	C6	0.943100	0.509700	0.083600
H21	H2	0.935400	0.546700	0.109100
O51	O5	0.914100	0.054000	0.167800
O61	O6	0.968100	0.963600	0.186500
C71	C7	0.960700	0.014800	0.154800
C81	C8	0.004500	0.030900	0.098300
C91	C9	0.056900	0.990300	0.083600
H31	H3	0.064600	0.953300	0.109100
O71	O7	0.414100	0.554000	0.667800
O81	O8	0.468100	0.463600	0.686500
C101	C10	0.460700	0.514800	0.654800
C111	C11	0.504500	0.530900	0.598300
C121	C12	0.556900	0.490300	0.583600
H41	H4	0.564600	0.453300	0.609100
O91	O9	0.414100	0.446000	0.832200
O101	O10	0.468100	0.536400	0.813500
C131	C13	0.460700	0.485200	0.845200
C141	C14	0.504500	0.469100	0.901700
C151	C15	0.556900	0.509700	0.916400
H51	H5	0.564600	0.546700	0.890900
O111	O11	0.914100	0.946000	0.332200
O121	O12	0.968100	0.036400	0.313500
C161	C16	0.960700	0.985200	0.345200
C171	C17	0.004500	0.969100	0.401700
C181	C18	0.056900	0.009700	0.416400
H61	H6	0.064600	0.046700	0.390900
O131	O13	0.085900	0.554000	0.332200
O141	O14	0.031900	0.463600	0.313500
C191	C19	0.039300	0.514800	0.345200
C201	C20	0.995500	0.530900	0.401700
C211	C21	0.943100	0.490300	0.416400
H71	H7	0.935400	0.453300	0.390900
O151	O15	0.585900	0.054000	0.832200
O161	O16	0.531900	0.963600	0.813500
C221	C22	0.539300	0.014800	0.845200
C231	C23	0.495500	0.030900	0.901700
C241	C24	0.443100	0.990300	0.916400
H81	H8	0.435400	0.953300	0.890900
O171	O17	0.667800	0.585900	0.946000
O181	O18	0.686500	0.531900	0.036400
C251	C25	0.654800	0.539300	0.985200
C261	C26	0.598300	0.495500	0.969100
C271	C27	0.583600	0.443100	0.009700
H91	H9	0.609100	0.435400	0.046700
O191	O19	0.167800	0.085900	0.446000
O201	O20	0.186500	0.031900	0.536400
C281	C28	0.154800	0.039300	0.485200
C291	C29	0.098300	0.995500	0.469100
C301	C30	0.083600	0.943100	0.509700
H101	H10	0.109100	0.935400	0.546700
O211	O21	0.167800	0.914100	0.054000
O221	O22	0.186500	0.968100	0.963600
C311	C31	0.154800	0.960700	0.014800
C321	C32	0.098300	0.004500	0.030900
C331	C33	0.083600	0.056900	0.990300
H111	H11	0.109100	0.064600	0.953300
O231	O23	0.667800	0.414100	0.554000
O241	O24	0.686500	0.468100	0.463600
C341	C34	0.654800	0.460700	0.514800
C351	C35	0.598300	0.504500	0.530900
C361	C36	0.583600	0.556900	0.490300
H121	H12	0.609100	0.564600	0.453300
O251	O25	0.832200	0.414100	0.446000
O261	O26	0.813500	0.468100	0.536400
C371	C37	0.845200	0.460700	0.485200
C381	C38	0.901700	0.504500	0.469100
C391	C39	0.916400	0.556900	0.509700
H131	H13	0.890900	0.564600	0.546700
O271	O27	0.332200	0.914100	0.946000
O281	O28	0.313500	0.968100	0.036400
C401	C40	0.345200	0.960700	0.985200
C411	C41	0.401700	0.004500	0.969100
C421	C42	0.416400	0.056900	0.009700
H141	H14	0.390900	0.064600	0.046700
O291	O29	0.332200	0.085900	0.554000
O301	O30	0.313500	0.031900	0.463600
C431	C43	0.345200	0.039300	0.514800
C441	C44	0.401700	0.995500	0.530900
C451	C45	0.416400	0.943100	0.490300
H151	H15	0.390900	0.935400	0.453300
O311	O31	0.832200	0.585900	0.054000
O321	O32	0.813500	0.531900	0.963600
C461	C46	0.845200	0.539300	0.014800
C471	C47	0.901700	0.495500	0.030900
C481	C48	0.916400	0.443100	0.990300
H161	H16	0.890900	0.435400	0.953300
O331	O33	0.946000	0.667800	0.585900
O341	O34	0.036400	0.686500	0.531900
C491	C49	0.985200	0.654800	0.539300
C501	C50	0.969100	0.598300	0.495500
C511	C51	0.009700	0.583600	0.443100
H171	H17	0.046700	0.609100	0.435400
O351	O35	0.446000	0.167800	0.085900
O361	O36	0.536400	0.186500	0.031900
C521	C52	0.485200	0.154800	0.039300
C531	C53	0.469100	0.098300	0.995500
C541	C54	0.509700	0.083600	0.943100
H181	H18	0.546700	0.109100	0.935400
O371	O37	0.054000	0.167800	0.914100
O381	O38	0.963600	0.186500	0.968100
C551	C55	0.014800	0.154800	0.960700
C561	C56	0.030900	0.098300	0.004500
C571	C57	0.990300	0.083600	0.056900
H191	H19	0.953300	0.109100	0.064600
O391	O39	0.554000	0.667800	0.414100
O401	O40	0.463600	0.686500	0.468100
C581	C58	0.514800	0.654800	0.460700
C591	C59	0.530900	0.598300	0.504500
C601	C60	0.490300	0.583600	0.556900
H201	H20	0.453300	0.609100	0.564600
O411	O41	0.446000	0.832200	0.414100
O421	O42	0.536400	0.813500	0.468100
C611	C61	0.485200	0.845200	0.460700
C621	C62	0.469100	0.901700	0.504500
C631	C63	0.509700	0.916400	0.556900
H211	H21	0.546700	0.890900	0.564600
O431	O43	0.946000	0.332200	0.914100
O441	O44	0.036400	0.313500	0.968100
C641	C64	0.985200	0.345200	0.960700
C651	C65	0.969100	0.401700	0.004500
C661	C66	0.009700	0.416400	0.056900
H221	H22	0.046700	0.390900	0.064600
O451	O45	0.554000	0.332200	0.085900
O461	O46	0.463600	0.313500	0.031900
C671	C67	0.514800	0.345200	0.039300
C681	C68	0.530900	0.401700	0.995500
C691	C69	0.490300	0.416400	0.943100
H231	H23	0.453300	0.390900	0.935400
O471	O47	0.054000	0.832200	0.585900
O481	O48	0.963600	0.813500	0.531900
C701	C70	0.014800	0.845200	0.539300
C711	C71	0.030900	0.901700	0.495500
C721	C72	0.990300	0.916400	0.443100
H241	H24	0.953300	0.890900	0.435400
O491	O49	0.196000	0.835900	0.917800
O501	O50	0.286400	0.781900	0.936500
C731	C73	0.235200	0.789300	0.904800
C741	C74	0.219100	0.745500	0.848300
C751	C75	0.259700	0.693100	0.833600
H251	H25	0.296700	0.685400	0.859100
O511	O51	0.696000	0.335900	0.417800
O521	O52	0.786400	0.281900	0.436500
C761	C76	0.735200	0.289300	0.404800
C771	C77	0.719100	0.245500	0.348300
C781	C78	0.759700	0.193100	0.333600
H261	H26	0.796700	0.185400	0.359100
O531	O53	0.304000	0.164100	0.417800
O541	O54	0.213600	0.218100	0.436500
C791	C79	0.264800	0.210700	0.404800
C801	C80	0.280900	0.254500	0.348300
C811	C81	0.240300	0.306900	0.333600
H271	H27	0.203300	0.314600	0.359100
O551	O55	0.804000	0.664100	0.917800
O561	O56	0.713600	0.718100	0.936500
C821	C82	0.764800	0.710700	0.904800
C831	C83	0.780900	0.754500	0.848300
C841	C84	0.740300	0.806900	0.833600
H281	H28	0.703300	0.814600	0.859100
O571	O57	0.696000	0.664100	0.082200
O581	O58	0.786400	0.718100	0.063500
C851	C85	0.735200	0.710700	0.095200
C861	C86	0.719100	0.754500	0.151700
C871	C87	0.759700	0.806900	0.166400
H291	H29	0.796700	0.814600	0.140900
O591	O59	0.196000	0.164100	0.582200
O601	O60	0.286400	0.218100	0.563500
C881	C88	0.235200	0.210700	0.595200
C891	C89	0.219100	0.254500	0.651700
C901	C90	0.259700	0.306900	0.666400
H301	H30	0.296700	0.314600	0.640900
O611	O61	0.804000	0.335900	0.582200
O621	O62	0.713600	0.281900	0.563500
C911	C91	0.764800	0.289300	0.595200
C921	C92	0.780900	0.245500	0.651700
C931	C93	0.740300	0.193100	0.666400
H311	H31	0.703300	0.185400	0.640900
O631	O63	0.304000	0.835900	0.082200
O641	O64	0.213600	0.781900	0.063500
C941	C94	0.264800	0.789300	0.095200
C951	C95	0.280900	0.745500	0.151700
C961	C96	0.240300	0.693100	0.166400
H321	H32	0.203300	0.685400	0.140900
O651	O65	0.835900	0.917800	0.196000
O661	O66	0.781900	0.936500	0.286400
C971	C97	0.789300	0.904800	0.235200
C981	C98	0.745500	0.848300	0.219100
C991	C99	0.693100	0.833600	0.259700
H331	H33	0.685400	0.859100	0.296700
O671	O67	0.335900	0.417800	0.696000
O681	O68	0.281900	0.436500	0.786400
C1001	C100	0.289300	0.404800	0.735200
C1011	C101	0.245500	0.348300	0.719100
C1021	C102	0.193100	0.333600	0.759700
H341	H34	0.185400	0.359100	0.796700
O691	O69	0.164100	0.417800	0.304000
O701	O70	0.218100	0.436500	0.213600
C1031	C103	0.210700	0.404800	0.264800
C1041	C104	0.254500	0.348300	0.280900
C1051	C105	0.306900	0.333600	0.240300
H351	H35	0.314600	0.359100	0.203300
O711	O71	0.664100	0.917800	0.804000
O721	O72	0.718100	0.936500	0.713600
C1061	C106	0.710700	0.904800	0.764800
C1071	C107	0.754500	0.848300	0.780900
C1081	C108	0.806900	0.833600	0.740300
H361	H36	0.814600	0.859100	0.703300
O731	O73	0.664100	0.082200	0.696000
O741	O74	0.718100	0.063500	0.786400
C1091	C109	0.710700	0.095200	0.735200
C1101	C110	0.754500	0.151700	0.719100
C1111	C111	0.806900	0.166400	0.759700
H371	H37	0.814600	0.140900	0.796700
O751	O75	0.164100	0.582200	0.196000
O761	O76	0.218100	0.563500	0.286400
C1121	C112	0.210700	0.595200	0.235200
C1131	C113	0.254500	0.651700	0.219100
C1141	C114	0.306900	0.666400	0.259700
H381	H38	0.314600	0.640900	0.296700
O771	O77	0.335900	0.582200	0.804000
O781	O78	0.281900	0.563500	0.713600
C1151	C115	0.289300	0.595200	0.764800
C1161	C116	0.245500	0.651700	0.780900
C1171	C117	0.193100	0.666400	0.740300
H391	H39	0.185400	0.640900	0.703300
O791	O79	0.835900	0.082200	0.304000
O801	O80	0.781900	0.063500	0.213600
C1181	C118	0.789300	0.095200	0.264800
C1191	C119	0.745500	0.151700	0.280900
C1201	C120	0.693100	0.166400	0.240300
H401	H40	0.685400	0.140900	0.203300
O811	O81	0.917800	0.196000	0.835900
O821	O82	0.936500	0.286400	0.781900
C1211	C121	0.904800	0.235200	0.789300
C1221	C122	0.848300	0.219100	0.745500
C1231	C123	0.833600	0.259700	0.693100
H411	H41	0.859100	0.296700	0.685400
O831	O83	0.417800	0.696000	0.335900
O841	O84	0.436500	0.786400	0.281900
C1241	C124	0.404800	0.735200	0.289300
C1251	C125	0.348300	0.719100	0.245500
C1261	C126	0.333600	0.759700	0.193100
H421	H42	0.359100	0.796700	0.185400
O851	O85	0.417800	0.304000	0.164100
O861	O86	0.436500	0.213600	0.218100
C1271	C127	0.404800	0.264800	0.210700
C1281	C128	0.348300	0.280900	0.254500
C1291	C129	0.333600	0.240300	0.306900
H431	H43	0.359100	0.203300	0.314600
O871	O87	0.917800	0.804000	0.664100
O881	O88	0.936500	0.713600	0.718100
C1301	C130	0.904800	0.764800	0.710700
C1311	C131	0.848300	0.780900	0.754500
C1321	C132	0.833600	0.740300	0.806900
H441	H44	0.859100	0.703300	0.814600
O891	O89	0.082200	0.696000	0.664100
O901	O90	0.063500	0.786400	0.718100
C1331	C133	0.095200	0.735200	0.710700
C1341	C134	0.151700	0.719100	0.754500
C1351	C135	0.166400	0.759700	0.806900
H451	H45	0.140900	0.796700	0.814600
O911	O91	0.582200	0.196000	0.164100
O921	O92	0.563500	0.286400	0.218100
C1361	C136	0.595200	0.235200	0.210700
C1371	C137	0.651700	0.219100	0.254500
C1381	C138	0.666400	0.259700	0.306900
H461	H46	0.640900	0.296700	0.314600
O931	O93	0.582200	0.804000	0.335900
O941	O94	0.563500	0.713600	0.281900
C1391	C139	0.595200	0.764800	0.289300
C1401	C140	0.651700	0.780900	0.245500
C1411	C141	0.666400	0.740300	0.193100
H471	H47	0.640900	0.703300	0.185400
O951	O95	0.082200	0.304000	0.835900
O961	O96	0.063500	0.213600	0.781900
C1421	C142	0.095200	0.264800	0.789300
C1431	C143	0.151700	0.280900	0.745500
C1441	C144	0.166400	0.240300	0.693100
H481	H48	0.140900	0.203300	0.685400
In11	In1	0.625000	0.000000	0.750000
In21	In2	0.875000	0.000000	0.250000
In31	In3	0.375000	0.500000	0.750000
In41	In4	0.125000	0.500000	0.250000
In51	In5	0.750000	0.625000	0.000000
In61	In6	0.250000	0.875000	0.000000
In71	In7	0.750000	0.375000	0.500000
In81	In8	0.250000	0.125000	0.500000
In91	In9	0.000000	0.750000	0.625000
In101	In10	0.000000	0.250000	0.875000
In111	In11	0.500000	0.750000	0.375000
In121	In12	0.500000	0.250000	0.125000
