data_ACODED_PM
_symmetry_space_group_name_H-M	'P1'
_cell_length_a	14.299200
_cell_length_b	16.081100
_cell_length_c	24.091800
_cell_angle_alpha	90.000000
_cell_angle_beta	90.000000
_cell_angle_gamma	90.000000
_symmetry_Int_Tables_number 1

loop_
_symmetry_equiv_pos_as_xyz
'x,y,z'

loop_
_atom_site_label
_atom_site_type_symbol
_atom_site_fract_x
_atom_site_fract_y
_atom_site_fract_z
_atom_site_charge
Cu1	Cu	0.811672	0.439732	0.647317	0.897953
Cu2	Cu	0.311672	0.060268	0.852683	0.897953
Cu3	Cu	0.688328	0.560268	0.647317	0.897953
Cu4	Cu	0.188328	0.939732	0.852683	0.897953
Cu5	Cu	0.188328	0.560268	0.352683	0.897953
Cu6	Cu	0.688328	0.939732	0.147317	0.897953
Cu7	Cu	0.311672	0.439732	0.352683	0.897953
Cu8	Cu	0.811672	0.060268	0.147317	0.897953
P1	P	0.932350	0.266730	0.611110	1.016213
P2	P	0.432350	0.233270	0.888890	1.016213
P3	P	0.567650	0.733270	0.611110	1.016213
P4	P	0.067650	0.766730	0.888890	1.016213
P5	P	0.067650	0.733270	0.388890	1.016213
P6	P	0.567650	0.766730	0.111110	1.016213
P7	P	0.432350	0.266730	0.388890	1.016213
P8	P	0.932350	0.233270	0.111110	1.016213
H1	H	0.505200	0.010000	0.552500	0.413193
H2	H	0.005200	0.490000	0.947500	0.413193
H3	H	0.994800	0.990000	0.552500	0.413193
H4	H	0.494800	0.510000	0.947500	0.413193
H5	H	0.494800	0.990000	0.447500	0.413193
H6	H	0.994800	0.510000	0.052500	0.413193
H7	H	0.005200	0.010000	0.447500	0.413193
H8	H	0.505200	0.490000	0.052500	0.413193
H9	H	0.892700	0.166200	0.513400	0.092383
H10	H	0.392700	0.333800	0.986600	0.092383
H11	H	0.607300	0.833800	0.513400	0.092383
H12	H	0.107300	0.666200	0.986600	0.092383
H13	H	0.107300	0.833800	0.486600	0.092383
H14	H	0.607300	0.666200	0.013400	0.092383
H15	H	0.392700	0.166200	0.486600	0.092383
H16	H	0.892700	0.333800	0.013400	0.092383
H17	H	0.764300	0.090100	0.483100	0.108669
H18	H	0.264300	0.409900	0.016900	0.108669
H19	H	0.735700	0.909900	0.483100	0.108669
H20	H	0.235700	0.590100	0.016900	0.108669
H21	H	0.235700	0.909900	0.516900	0.108669
H22	H	0.735700	0.590100	0.983100	0.108669
H23	H	0.264300	0.090100	0.516900	0.108669
H24	H	0.764300	0.409900	0.983100	0.108669
H25	H	0.626000	0.145300	0.622700	0.108669
H26	H	0.126000	0.354700	0.877300	0.108669
H27	H	0.874000	0.854700	0.622700	0.108669
H28	H	0.374000	0.645300	0.877300	0.108669
H29	H	0.374000	0.854700	0.377300	0.108669
H30	H	0.874000	0.645300	0.122700	0.108669
H31	H	0.126000	0.145300	0.377300	0.108669
H32	H	0.626000	0.354700	0.122700	0.108669
H33	H	0.752100	0.229600	0.653800	0.092383
H34	H	0.252100	0.270400	0.846200	0.092383
H35	H	0.747900	0.770400	0.653800	0.092383
H36	H	0.247900	0.729600	0.846200	0.092383
H37	H	0.247900	0.770400	0.346200	0.092383
H38	H	0.747900	0.729600	0.153800	0.092383
H39	H	0.252100	0.229600	0.346200	0.092383
H40	H	0.752100	0.270400	0.153800	0.092383
H41	H	0.944000	0.089200	0.638900	0.092383
H42	H	0.444000	0.410800	0.861100	0.092383
H43	H	0.556000	0.910800	0.638900	0.092383
H44	H	0.056000	0.589200	0.861100	0.092383
H45	H	0.056000	0.910800	0.361100	0.092383
H46	H	0.556000	0.589200	0.138900	0.092383
H47	H	0.444000	0.089200	0.361100	0.092383
H48	H	0.944000	0.410800	0.138900	0.092383
H49	H	0.086700	0.298600	0.677700	0.092383
H50	H	0.586700	0.201400	0.822300	0.092383
H51	H	0.413300	0.701400	0.677700	0.092383
H52	H	0.913300	0.798600	0.822300	0.092383
H53	H	0.913300	0.701400	0.322300	0.092383
H54	H	0.413300	0.798600	0.177700	0.092383
H55	H	0.586700	0.298600	0.322300	0.092383
H56	H	0.086700	0.201400	0.177700	0.092383
H57	H	0.892600	0.378100	0.525000	0.092383
H58	H	0.392600	0.121900	0.975000	0.092383
H59	H	0.607400	0.621900	0.525000	0.092383
H60	H	0.107400	0.878100	0.975000	0.092383
H61	H	0.107400	0.621900	0.475000	0.092383
H62	H	0.607400	0.878100	0.025000	0.092383
H63	H	0.392600	0.378100	0.475000	0.092383
H64	H	0.892600	0.121900	0.025000	0.092383
H65	H	0.171600	0.226000	0.744300	0.108669
H66	H	0.671600	0.274000	0.755700	0.108669
H67	H	0.328400	0.774000	0.744300	0.108669
H68	H	0.828400	0.726000	0.755700	0.108669
H69	H	0.828400	0.774000	0.255700	0.108669
H70	H	0.328400	0.726000	0.244300	0.108669
H71	H	0.671600	0.226000	0.255700	0.108669
H72	H	0.171600	0.274000	0.244300	0.108669
H73	H	0.028900	0.016600	0.706900	0.108669
H74	H	0.528900	0.483400	0.793100	0.108669
H75	H	0.471100	0.983400	0.706900	0.108669
H76	H	0.971100	0.516600	0.793100	0.108669
H77	H	0.971100	0.983400	0.293100	0.108669
H78	H	0.471100	0.516600	0.206900	0.108669
H79	H	0.528900	0.016600	0.293100	0.108669
H80	H	0.028900	0.483400	0.206900	0.108669
H81	H	0.116900	0.233900	0.562400	0.092383
H82	H	0.616900	0.266100	0.937600	0.092383
H83	H	0.383100	0.766100	0.562400	0.092383
H84	H	0.883100	0.733900	0.937600	0.092383
H85	H	0.883100	0.766100	0.437600	0.092383
H86	H	0.383100	0.733900	0.062400	0.092383
H87	H	0.616900	0.233900	0.437600	0.092383
H88	H	0.116900	0.266100	0.062400	0.092383
H89	H	0.202600	0.298600	0.491500	0.108669
H90	H	0.702600	0.201400	0.008500	0.108669
H91	H	0.297400	0.701400	0.491500	0.108669
H92	H	0.797400	0.798600	0.008500	0.108669
H93	H	0.797400	0.701400	0.508500	0.108669
H94	H	0.297400	0.798600	0.991500	0.108669
H95	H	0.702600	0.298600	0.508500	0.108669
H96	H	0.202600	0.201400	0.991500	0.108669
H97	H	0.977900	0.441900	0.454300	0.108669
H98	H	0.477900	0.058100	0.045700	0.108669
H99	H	0.522100	0.558100	0.454300	0.108669
H100	H	0.022100	0.941900	0.045700	0.108669
H101	H	0.022100	0.558100	0.545700	0.108669
H102	H	0.522100	0.941900	0.954300	0.108669
H103	H	0.477900	0.441900	0.545700	0.108669
H104	H	0.977900	0.058100	0.954300	0.108669
C1	C	0.835930	0.205250	0.586700	-0.281046
C2	C	0.335930	0.294750	0.913300	-0.281046
C3	C	0.664070	0.794750	0.586700	-0.281046
C4	C	0.164070	0.705250	0.913300	-0.281046
C5	C	0.164070	0.794750	0.413300	-0.281046
C6	C	0.664070	0.705250	0.086700	-0.281046
C7	C	0.335930	0.205250	0.413300	-0.281046
C8	C	0.835930	0.294750	0.086700	-0.281046
C9	C	0.838200	0.163290	0.535910	-0.016219
C10	C	0.338200	0.336710	0.964090	-0.016219
C11	C	0.661800	0.836710	0.535910	-0.016219
C12	C	0.161800	0.663290	0.964090	-0.016219
C13	C	0.161800	0.836710	0.464090	-0.016219
C14	C	0.661800	0.663290	0.035910	-0.016219
C15	C	0.338200	0.163290	0.464090	-0.016219
C16	C	0.838200	0.336710	0.035910	-0.016219
C17	C	0.762000	0.117640	0.517990	-0.064599
C18	C	0.262000	0.382360	0.982010	-0.064599
C19	C	0.738000	0.882360	0.517990	-0.064599
C20	C	0.238000	0.617640	0.982010	-0.064599
C21	C	0.238000	0.882360	0.482010	-0.064599
C22	C	0.738000	0.617640	0.017990	-0.064599
C23	C	0.262000	0.117640	0.482010	-0.064599
C24	C	0.762000	0.382360	0.017990	-0.064599
C25	C	0.684500	0.111900	0.549690	-0.094493
C26	C	0.184500	0.388100	0.950310	-0.094493
C27	C	0.815500	0.888100	0.549690	-0.094493
C28	C	0.315500	0.611900	0.950310	-0.094493
C29	C	0.315500	0.888100	0.450310	-0.094493
C30	C	0.815500	0.611900	0.049690	-0.094493
C31	C	0.184500	0.111900	0.450310	-0.094493
C32	C	0.684500	0.388100	0.049690	-0.094493
C33	C	0.680300	0.151300	0.600320	-0.064599
C34	C	0.180300	0.348700	0.899680	-0.064599
C35	C	0.819700	0.848700	0.600320	-0.064599
C36	C	0.319700	0.651300	0.899680	-0.064599
C37	C	0.319700	0.848700	0.399680	-0.064599
C38	C	0.819700	0.651300	0.100320	-0.064599
C39	C	0.180300	0.151300	0.399680	-0.064599
C40	C	0.680300	0.348700	0.100320	-0.064599
C41	C	0.756000	0.200600	0.619540	-0.016219
C42	C	0.256000	0.299400	0.880460	-0.016219
C43	C	0.744000	0.799400	0.619540	-0.016219
C44	C	0.244000	0.700600	0.880460	-0.016219
C45	C	0.244000	0.799400	0.380460	-0.016219
C46	C	0.744000	0.700600	0.119540	-0.016219
C47	C	0.256000	0.200600	0.380460	-0.016219
C48	C	0.756000	0.299400	0.119540	-0.016219
C49	C	0.598700	0.063600	0.526800	0.643152
C50	C	0.098700	0.436400	0.973200	0.643152
C51	C	0.901300	0.936400	0.526800	0.643152
C52	C	0.401300	0.563600	0.973200	0.643152
C53	C	0.401300	0.936400	0.473200	0.643152
C54	C	0.901300	0.563600	0.026800	0.643152
C55	C	0.098700	0.063600	0.473200	0.643152
C56	C	0.598700	0.436400	0.026800	0.643152
C57	C	0.005490	0.201440	0.653090	-0.281046
C58	C	0.505490	0.298560	0.846910	-0.281046
C59	C	0.494510	0.798560	0.653090	-0.281046
C60	C	0.994510	0.701440	0.846910	-0.281046
C61	C	0.994510	0.798560	0.346910	-0.281046
C62	C	0.494510	0.701440	0.153090	-0.281046
C63	C	0.505490	0.201440	0.346910	-0.281046
C64	C	0.005490	0.298560	0.153090	-0.281046
C65	C	0.989300	0.117370	0.660800	-0.016219
C66	C	0.489300	0.382630	0.839200	-0.016219
C67	C	0.510700	0.882630	0.660800	-0.016219
C68	C	0.010700	0.617370	0.839200	-0.016219
C69	C	0.010700	0.882630	0.339200	-0.016219
C70	C	0.510700	0.617370	0.160800	-0.016219
C71	C	0.489300	0.117370	0.339200	-0.016219
C72	C	0.989300	0.382630	0.160800	-0.016219
C73	C	0.074260	0.241290	0.683930	-0.016219
C74	C	0.574260	0.258710	0.816070	-0.016219
C75	C	0.425740	0.758710	0.683930	-0.016219
C76	C	0.925740	0.741290	0.816070	-0.016219
C77	C	0.925740	0.758710	0.316070	-0.016219
C78	C	0.425740	0.741290	0.183930	-0.016219
C79	C	0.574260	0.241290	0.316070	-0.016219
C80	C	0.074260	0.258710	0.183930	-0.016219
C81	C	0.997460	0.301710	0.551600	-0.281046
C82	C	0.497460	0.198290	0.948400	-0.281046
C83	C	0.502540	0.698290	0.551600	-0.281046
C84	C	0.002540	0.801710	0.948400	-0.281046
C85	C	0.002540	0.698290	0.448400	-0.281046
C86	C	0.502540	0.801710	0.051600	-0.281046
C87	C	0.497460	0.301710	0.448400	-0.281046
C88	C	0.997460	0.198290	0.051600	-0.281046
C89	C	0.955870	0.362600	0.518680	-0.016219
C90	C	0.455870	0.137400	0.981320	-0.016219
C91	C	0.544130	0.637400	0.518680	-0.016219
C92	C	0.044130	0.862600	0.981320	-0.016219
C93	C	0.044130	0.637400	0.481320	-0.016219
C94	C	0.544130	0.862600	0.018680	-0.016219
C95	C	0.455870	0.362600	0.481320	-0.016219
C96	C	0.955870	0.137400	0.018680	-0.016219
C97	C	0.124500	0.198410	0.723450	-0.070905
C98	C	0.624500	0.301590	0.776550	-0.070905
C99	C	0.375500	0.801590	0.723450	-0.070905
C100	C	0.875500	0.698410	0.776550	-0.070905
C101	C	0.875500	0.801590	0.276550	-0.070905
C102	C	0.375500	0.698410	0.223450	-0.070905
C103	C	0.624500	0.198410	0.276550	-0.070905
C104	C	0.124500	0.301590	0.223450	-0.070905
C105	C	0.106200	0.114910	0.732640	-0.078416
C106	C	0.606200	0.385090	0.767360	-0.078416
C107	C	0.393800	0.885090	0.732640	-0.078416
C108	C	0.893800	0.614910	0.767360	-0.078416
C109	C	0.893800	0.885090	0.267360	-0.078416
C110	C	0.393800	0.614910	0.232640	-0.078416
C111	C	0.606200	0.114910	0.267360	-0.078416
C112	C	0.106200	0.385090	0.232640	-0.078416
C113	C	0.040100	0.074240	0.701140	-0.070905
C114	C	0.540100	0.425760	0.798860	-0.070905
C115	C	0.459900	0.925760	0.701140	-0.070905
C116	C	0.959900	0.574240	0.798860	-0.070905
C117	C	0.959900	0.925760	0.298860	-0.070905
C118	C	0.459900	0.574240	0.201140	-0.070905
C119	C	0.540100	0.074240	0.298860	-0.070905
C120	C	0.040100	0.425760	0.201140	-0.070905
C121	C	0.157940	0.070740	0.778010	0.654258
C122	C	0.657940	0.429260	0.721990	0.654258
C123	C	0.342060	0.929260	0.778010	0.654258
C124	C	0.842060	0.570740	0.721990	0.654258
C125	C	0.842060	0.929260	0.221990	0.654258
C126	C	0.342060	0.570740	0.278010	0.654258
C127	C	0.657940	0.070740	0.221990	0.654258
C128	C	0.157940	0.429260	0.278010	0.654258
C129	C	0.089200	0.276930	0.540980	-0.016219
C130	C	0.589200	0.223070	0.959020	-0.016219
C131	C	0.410800	0.723070	0.540980	-0.016219
C132	C	0.910800	0.776930	0.959020	-0.016219
C133	C	0.910800	0.723070	0.459020	-0.016219
C134	C	0.410800	0.776930	0.040980	-0.016219
C135	C	0.589200	0.276930	0.459020	-0.016219
C136	C	0.089200	0.223070	0.040980	-0.016219
C137	C	0.140090	0.315400	0.498830	-0.070905
C138	C	0.640090	0.184600	0.001170	-0.070905
C139	C	0.359910	0.684600	0.498830	-0.070905
C140	C	0.859910	0.815400	0.001170	-0.070905
C141	C	0.859910	0.684600	0.501170	-0.070905
C142	C	0.359910	0.815400	0.998830	-0.070905
C143	C	0.640090	0.315400	0.501170	-0.070905
C144	C	0.140090	0.184600	0.998830	-0.070905
C145	C	0.099360	0.378420	0.467420	-0.078416
C146	C	0.599360	0.121580	0.032580	-0.078416
C147	C	0.400640	0.621580	0.467420	-0.078416
C148	C	0.900640	0.878420	0.032580	-0.078416
C149	C	0.900640	0.621580	0.532580	-0.078416
C150	C	0.400640	0.878420	0.967420	-0.078416
C151	C	0.599360	0.378420	0.532580	-0.078416
C152	C	0.099360	0.121580	0.967420	-0.078416
C153	C	0.006550	0.400620	0.476720	-0.070905
C154	C	0.506550	0.099380	0.023280	-0.070905
C155	C	0.493450	0.599380	0.476720	-0.070905
C156	C	0.993450	0.900620	0.023280	-0.070905
C157	C	0.993450	0.599380	0.523280	-0.070905
C158	C	0.493450	0.900620	0.976720	-0.070905
C159	C	0.506550	0.400620	0.523280	-0.070905
C160	C	0.006550	0.099380	0.976720	-0.070905
C161	C	0.156320	0.424390	0.425160	0.654258
C162	C	0.656320	0.075610	0.074840	0.654258
C163	C	0.343680	0.575610	0.425160	0.654258
C164	C	0.843680	0.924390	0.074840	0.654258
C165	C	0.843680	0.575610	0.574840	0.654258
C166	C	0.343680	0.924390	0.925160	0.654258
C167	C	0.656320	0.424390	0.574840	0.654258
C168	C	0.156320	0.075610	0.925160	0.654258
O1	O	0.902400	0.338390	0.646130	-0.735263
O2	O	0.402400	0.161610	0.853870	-0.735263
O3	O	0.597600	0.661610	0.646130	-0.735263
O4	O	0.097600	0.838390	0.853870	-0.735263
O5	O	0.097600	0.661610	0.353870	-0.735263
O6	O	0.597600	0.838390	0.146130	-0.735263
O7	O	0.402400	0.338390	0.353870	-0.735263
O8	O	0.902400	0.161610	0.146130	-0.735263
O9	O	0.601600	0.041190	0.477650	-0.529305
O10	O	0.101600	0.458810	0.022350	-0.529305
O11	O	0.898400	0.958810	0.477650	-0.529305
O12	O	0.398400	0.541190	0.022350	-0.529305
O13	O	0.398400	0.958810	0.522350	-0.529305
O14	O	0.898400	0.541190	0.977650	-0.529305
O15	O	0.101600	0.041190	0.522350	-0.529305
O16	O	0.601600	0.458810	0.977650	-0.529305
O17	O	0.536600	0.052000	0.561420	-0.508843
O18	O	0.036600	0.448000	0.938580	-0.508843
O19	O	0.963400	0.948000	0.561420	-0.508843
O20	O	0.463400	0.552000	0.938580	-0.508843
O21	O	0.463400	0.948000	0.438580	-0.508843
O22	O	0.963400	0.552000	0.061420	-0.508843
O23	O	0.036600	0.052000	0.438580	-0.508843
O24	O	0.536600	0.448000	0.061420	-0.508843
O25	O	0.219610	0.112590	0.803330	-0.526833
O26	O	0.719610	0.387410	0.696670	-0.526833
O27	O	0.280390	0.887410	0.803330	-0.526833
O28	O	0.780390	0.612590	0.696670	-0.526833
O29	O	0.780390	0.887410	0.196670	-0.526833
O30	O	0.280390	0.612590	0.303330	-0.526833
O31	O	0.719610	0.112590	0.196670	-0.526833
O32	O	0.219610	0.387410	0.303330	-0.526833
O33	O	0.239620	0.401100	0.417740	-0.526833
O34	O	0.739620	0.098900	0.082260	-0.526833
O35	O	0.260380	0.598900	0.417740	-0.526833
O36	O	0.760380	0.901100	0.082260	-0.526833
O37	O	0.760380	0.598900	0.582260	-0.526833
O38	O	0.260380	0.901100	0.917740	-0.526833
O39	O	0.739620	0.401100	0.582260	-0.526833
O40	O	0.239620	0.098900	0.917740	-0.526833
O41	O	0.116310	0.483860	0.400170	-0.526833
O42	O	0.616310	0.016140	0.099830	-0.526833
O43	O	0.383690	0.516140	0.400170	-0.526833
O44	O	0.883690	0.983860	0.099830	-0.526833
O45	O	0.883690	0.516140	0.599830	-0.526833
O46	O	0.383690	0.983860	0.900170	-0.526833
O47	O	0.616310	0.483860	0.599830	-0.526833
O48	O	0.116310	0.016140	0.900170	-0.526833
O49	O	0.135600	0.995850	0.787390	-0.526833
O50	O	0.635600	0.504150	0.712610	-0.526833
O51	O	0.364400	0.004150	0.787390	-0.526833
O52	O	0.864400	0.495850	0.712610	-0.526833
O53	O	0.864400	0.004150	0.212610	-0.526833
O54	O	0.364400	0.495850	0.287390	-0.526833
O55	O	0.635600	0.995850	0.212610	-0.526833
O56	O	0.135600	0.504150	0.287390	-0.526833
