data_ACOLUB_clean_PM
_symmetry_space_group_name_H-M	'P1'
_cell_length_a	16.483001
_cell_length_b	18.012600
_cell_length_c	18.012600
_cell_angle_alpha	68.569001
_cell_angle_beta	72.689999
_cell_angle_gamma	72.689901
_symmetry_Int_Tables_number 1

loop_
_symmetry_equiv_pos_as_xyz
'x,y,z'

loop_
_atom_site_label
_atom_site_type_symbol
_atom_site_fract_x
_atom_site_fract_y
_atom_site_fract_z
_atom_site_charge
Cd1	Cd	0.450770	0.187790	0.356530	1.102349
Cd2	Cd	0.049230	0.643470	0.812210	1.102349
Cd3	Cd	0.549230	0.812210	0.643470	1.102349
Cd4	Cd	0.950770	0.356530	0.187790	1.102349
Cd5	Cd	0.500000	0.000000	0.500000	1.174790
Cd6	Cd	0.000000	0.500000	0.000000	1.174790
H1	H	0.158500	0.882100	0.112100	0.064402
H2	H	0.182700	0.937900	0.148700	0.064402
H3	H	0.081000	0.850900	0.357900	0.068864
H4	H	0.180600	0.833900	0.316700	0.068864
H5	H	0.025400	0.978300	0.211500	0.068864
H6	H	0.005300	0.923500	0.171300	0.068864
H7	H	0.145700	0.736700	0.261300	0.068864
H8	H	0.048400	0.760900	0.306300	0.068864
H9	H	0.219800	0.862800	0.402600	0.127008
H10	H	0.308200	0.908200	0.449200	0.094017
H11	H	0.236900	0.133100	0.305900	0.094017
H12	H	0.147000	0.089200	0.264000	0.127008
H13	H	0.893600	0.044100	0.187100	0.127008
H14	H	0.754500	0.123300	0.198900	0.094017
H15	H	0.683900	0.955900	0.406100	0.094017
H16	H	0.821700	0.879400	0.397000	0.127008
H17	H	0.994600	0.759200	0.095000	0.127008
H18	H	0.954800	0.649400	0.092200	0.094017
H19	H	0.034200	0.518500	0.296900	0.094017
H20	H	0.079500	0.630800	0.294600	0.127008
H21	H	0.518100	0.332100	0.202100	0.097346
H22	H	0.307800	0.388000	0.114000	0.131400
H23	H	0.292500	0.278400	0.242800	0.113489
H24	H	0.520800	0.475000	0.127600	0.116612
H25	H	0.415400	0.428600	0.982400	0.116612
H26	H	0.341500	0.887900	0.117900	0.064402
H27	H	0.317300	0.851300	0.062100	0.064402
H28	H	0.419000	0.642100	0.149100	0.068864
H29	H	0.319400	0.683300	0.166100	0.068864
H30	H	0.474600	0.788500	0.021700	0.068864
H31	H	0.494700	0.828700	0.076500	0.068864
H32	H	0.354300	0.738700	0.263300	0.068864
H33	H	0.451600	0.693700	0.239100	0.068864
H34	H	0.280200	0.597400	0.137200	0.127008
H35	H	0.191800	0.550800	0.091800	0.094017
H36	H	0.263100	0.694100	0.866900	0.094017
H37	H	0.353000	0.736000	0.910800	0.127008
H38	H	0.606400	0.812900	0.955900	0.127008
H39	H	0.745500	0.801100	0.876700	0.094017
H40	H	0.816100	0.593900	0.044100	0.094017
H41	H	0.678300	0.603000	0.120600	0.127008
H42	H	0.505400	0.905000	0.240800	0.127008
H43	H	0.545200	0.907800	0.350600	0.094017
H44	H	0.465800	0.703100	0.481500	0.094017
H45	H	0.420500	0.705400	0.369200	0.127008
H46	H	0.981900	0.797900	0.667900	0.097346
H47	H	0.192200	0.886000	0.612000	0.131400
H48	H	0.207500	0.757200	0.721600	0.113489
H49	H	0.979200	0.872400	0.525000	0.116612
H50	H	0.084600	0.017600	0.571400	0.116612
H51	H	0.841500	0.117900	0.887900	0.064402
H52	H	0.817300	0.062100	0.851300	0.064402
H53	H	0.919000	0.149100	0.642100	0.068864
H54	H	0.819400	0.166100	0.683300	0.068864
H55	H	0.974600	0.021700	0.788500	0.068864
H56	H	0.994700	0.076500	0.828700	0.068864
H57	H	0.854300	0.263300	0.738700	0.068864
H58	H	0.951600	0.239100	0.693700	0.068864
H59	H	0.780200	0.137200	0.597400	0.127008
H60	H	0.691800	0.091800	0.550800	0.094017
H61	H	0.763100	0.866900	0.694100	0.094017
H62	H	0.853000	0.910800	0.736000	0.127008
H63	H	0.106400	0.955900	0.812900	0.127008
H64	H	0.245500	0.876700	0.801100	0.094017
H65	H	0.316100	0.044100	0.593900	0.094017
H66	H	0.178300	0.120600	0.603000	0.127008
H67	H	0.005400	0.240800	0.905000	0.127008
H68	H	0.045200	0.350600	0.907800	0.094017
H69	H	0.965800	0.481500	0.703100	0.094017
H70	H	0.920500	0.369200	0.705400	0.127008
H71	H	0.481900	0.667900	0.797900	0.097346
H72	H	0.692200	0.612000	0.886000	0.131400
H73	H	0.707500	0.721600	0.757200	0.113489
H74	H	0.479200	0.525000	0.872400	0.116612
H75	H	0.584600	0.571400	0.017600	0.116612
H76	H	0.658500	0.112100	0.882100	0.064402
H77	H	0.682700	0.148700	0.937900	0.064402
H78	H	0.581000	0.357900	0.850900	0.068864
H79	H	0.680600	0.316700	0.833900	0.068864
H80	H	0.525400	0.211500	0.978300	0.068864
H81	H	0.505300	0.171300	0.923500	0.068864
H82	H	0.645700	0.261300	0.736700	0.068864
H83	H	0.548400	0.306300	0.760900	0.068864
H84	H	0.719800	0.402600	0.862800	0.127008
H85	H	0.808200	0.449200	0.908200	0.094017
H86	H	0.736900	0.305900	0.133100	0.094017
H87	H	0.647000	0.264000	0.089200	0.127008
H88	H	0.393600	0.187100	0.044100	0.127008
H89	H	0.254500	0.198900	0.123300	0.094017
H90	H	0.183900	0.406100	0.955900	0.094017
H91	H	0.321700	0.397000	0.879400	0.127008
H92	H	0.494600	0.095000	0.759200	0.127008
H93	H	0.454800	0.092200	0.649400	0.094017
H94	H	0.534200	0.296900	0.518500	0.094017
H95	H	0.579500	0.294600	0.630800	0.127008
H96	H	0.018100	0.202100	0.332100	0.097346
H97	H	0.807800	0.114000	0.388000	0.131400
H98	H	0.792500	0.242800	0.278400	0.113489
H99	H	0.020800	0.127600	0.475000	0.116612
H100	H	0.915400	0.982400	0.428600	0.116612
C1	C	0.101500	0.863900	0.234700	-0.040317
C2	C	0.173700	0.883700	0.159500	0.076369
C3	C	0.124200	0.868400	0.309000	0.058379
C4	C	0.018800	0.923800	0.220000	0.058379
C5	C	0.090800	0.775100	0.255700	0.058379
C6	C	0.178300	0.971600	0.325600	0.286948
C7	C	0.224000	0.917300	0.382500	-0.257220
C8	C	0.276900	0.944500	0.410300	0.015623
C9	C	0.282600	0.025700	0.379500	-0.186372
C10	C	0.234200	0.078200	0.325600	0.015623
C11	C	0.181400	0.051800	0.299800	-0.257220
C12	C	0.345500	0.053100	0.403300	0.674176
C13	C	0.871600	0.953500	0.288900	0.286948
C14	C	0.850700	0.026200	0.232200	-0.257220
C15	C	0.767700	0.074400	0.239200	0.017134
C16	C	0.705600	0.048900	0.306700	-0.182261
C17	C	0.727100	0.975100	0.362100	0.017134
C18	C	0.808700	0.928000	0.356200	-0.257220
C19	C	0.617400	0.100600	0.317400	0.662109
C20	C	0.039100	0.706600	0.195200	0.286948
C21	C	0.003600	0.710200	0.136400	-0.257220
C22	C	0.979600	0.644400	0.134400	0.020967
C23	C	0.991800	0.571700	0.193900	-0.197998
C24	C	0.026900	0.566900	0.254500	0.020967
C25	C	0.052800	0.635300	0.253900	-0.257220
C26	C	0.969700	0.498800	0.190600	0.689757
C27	C	0.463700	0.332700	0.196500	0.113982
C28	C	0.348000	0.363900	0.147300	-0.150435
C29	C	0.339800	0.303500	0.218100	0.043961
C30	C	0.462800	0.444800	0.065000	0.104394
C31	C	0.512300	0.485400	0.075600	-0.127091
C32	C	0.449300	0.457500	0.989500	-0.127091
C33	C	0.398500	0.765300	0.136100	-0.040317
C34	C	0.326300	0.840500	0.116300	0.076369
C35	C	0.375800	0.691000	0.131600	0.058379
C36	C	0.481200	0.780000	0.076200	0.058379
C37	C	0.409200	0.744300	0.224900	0.058379
C38	C	0.321700	0.674400	0.028400	0.286948
C39	C	0.276000	0.617500	0.082700	-0.257220
C40	C	0.223100	0.589700	0.055500	0.015623
C41	C	0.217400	0.620500	0.974300	-0.186372
C42	C	0.265800	0.674400	0.921800	0.015623
C43	C	0.318600	0.700200	0.948200	-0.257220
C44	C	0.154500	0.596700	0.946900	0.674176
C45	C	0.628400	0.711100	0.046500	0.286948
C46	C	0.649300	0.767800	0.973800	-0.257220
C47	C	0.732300	0.760800	0.925600	0.017134
C48	C	0.794400	0.693300	0.951100	-0.182261
C49	C	0.772900	0.637900	0.024900	0.017134
C50	C	0.691300	0.643800	0.072000	-0.257220
C51	C	0.882600	0.682600	0.899400	0.662109
C52	C	0.460900	0.804800	0.293400	0.286948
C53	C	0.496400	0.863600	0.289800	-0.257220
C54	C	0.520400	0.865600	0.355600	0.020967
C55	C	0.508200	0.806100	0.428300	-0.197998
C56	C	0.473100	0.745500	0.433100	0.020967
C57	C	0.447200	0.746100	0.364700	-0.257220
C58	C	0.530300	0.809400	0.501200	0.689757
C59	C	0.036300	0.803500	0.667300	0.113982
C60	C	0.152000	0.852700	0.636100	-0.150435
C61	C	0.160200	0.781900	0.696500	0.043961
C62	C	0.037200	0.935000	0.555200	0.104394
C63	C	0.987700	0.924400	0.514600	-0.127091
C64	C	0.050700	0.010500	0.542500	-0.127091
C65	C	0.898500	0.136100	0.765300	-0.040317
C66	C	0.826300	0.116300	0.840500	0.076369
C67	C	0.875800	0.131600	0.691000	0.058379
C68	C	0.981200	0.076200	0.780000	0.058379
C69	C	0.909200	0.224900	0.744300	0.058379
C70	C	0.821700	0.028400	0.674400	0.286948
C71	C	0.776000	0.082700	0.617500	-0.257220
C72	C	0.723100	0.055500	0.589700	0.015623
C73	C	0.717400	0.974300	0.620500	-0.186372
C74	C	0.765800	0.921800	0.674400	0.015623
C75	C	0.818600	0.948200	0.700200	-0.257220
C76	C	0.654500	0.946900	0.596700	0.674176
C77	C	0.128400	0.046500	0.711100	0.286948
C78	C	0.149300	0.973800	0.767800	-0.257220
C79	C	0.232300	0.925600	0.760800	0.017134
C80	C	0.294400	0.951100	0.693300	-0.182261
C81	C	0.272900	0.024900	0.637900	0.017134
C82	C	0.191300	0.072000	0.643800	-0.257220
C83	C	0.382600	0.899400	0.682600	0.662109
C84	C	0.960900	0.293400	0.804800	0.286948
C85	C	0.996400	0.289800	0.863600	-0.257220
C86	C	0.020400	0.355600	0.865600	0.020967
C87	C	0.008200	0.428300	0.806100	-0.197998
C88	C	0.973100	0.433100	0.745500	0.020967
C89	C	0.947200	0.364700	0.746100	-0.257220
C90	C	0.030300	0.501200	0.809400	0.689757
C91	C	0.536300	0.667300	0.803500	0.113982
C92	C	0.652000	0.636100	0.852700	-0.150435
C93	C	0.660200	0.696500	0.781900	0.043961
C94	C	0.537200	0.555200	0.935000	0.104394
C95	C	0.487700	0.514600	0.924400	-0.127091
C96	C	0.550700	0.542500	0.010500	-0.127091
C97	C	0.601500	0.234700	0.863900	-0.040317
C98	C	0.673700	0.159500	0.883700	0.076369
C99	C	0.624200	0.309000	0.868400	0.058379
C100	C	0.518800	0.220000	0.923800	0.058379
C101	C	0.590800	0.255700	0.775100	0.058379
C102	C	0.678300	0.325600	0.971600	0.286948
C103	C	0.724000	0.382500	0.917300	-0.257220
C104	C	0.776900	0.410300	0.944500	0.015623
C105	C	0.782600	0.379500	0.025700	-0.186372
C106	C	0.734200	0.325600	0.078200	0.015623
C107	C	0.681400	0.299800	0.051800	-0.257220
C108	C	0.845500	0.403300	0.053100	0.674176
C109	C	0.371600	0.288900	0.953500	0.286948
C110	C	0.350700	0.232200	0.026200	-0.257220
C111	C	0.267700	0.239200	0.074400	0.017134
C112	C	0.205600	0.306700	0.048900	-0.182261
C113	C	0.227100	0.362100	0.975100	0.017134
C114	C	0.308700	0.356200	0.928000	-0.257220
C115	C	0.117400	0.317400	0.100600	0.662109
C116	C	0.539100	0.195200	0.706600	0.286948
C117	C	0.503600	0.136400	0.710200	-0.257220
C118	C	0.479600	0.134400	0.644400	0.020967
C119	C	0.491800	0.193900	0.571700	-0.197998
C120	C	0.526900	0.254500	0.566900	0.020967
C121	C	0.552800	0.253900	0.635300	-0.257220
C122	C	0.469700	0.190600	0.498800	0.689757
C123	C	0.963700	0.196500	0.332700	0.113982
C124	C	0.848000	0.147300	0.363900	-0.150435
C125	C	0.839800	0.218100	0.303500	0.043961
C126	C	0.962800	0.065000	0.444800	0.104394
C127	C	0.012300	0.075600	0.485400	-0.127091
C128	C	0.949300	0.989500	0.457500	-0.127091
N1	N	0.413500	0.285300	0.247700	-0.415633
N2	N	0.426400	0.383700	0.133100	0.039478
N3	N	0.086500	0.752300	0.714700	-0.415633
N4	N	0.073600	0.866900	0.616300	0.039478
N5	N	0.586500	0.714700	0.752300	-0.415633
N6	N	0.573600	0.616300	0.866900	0.039478
N7	N	0.913500	0.247700	0.285300	-0.415633
N8	N	0.926400	0.133100	0.383700	0.039478
O1	O	0.125500	0.952000	0.292600	-0.260187
O2	O	0.951500	0.903800	0.286600	-0.260187
O3	O	0.061600	0.774100	0.188900	-0.260187
O4	O	0.350400	0.127000	0.369400	-0.621141
O5	O	0.388100	0.002000	0.454200	-0.637747
O6	O	0.603500	0.172700	0.273900	-0.578291
O7	O	0.556400	0.069100	0.369700	-0.698333
O8	O	0.938700	0.506900	0.130900	-0.667741
O9	O	0.982300	0.433700	0.245700	-0.590682
O10	O	0.374500	0.707400	0.048000	-0.260187
O11	O	0.548500	0.713400	0.096200	-0.260187
O12	O	0.438400	0.811100	0.225900	-0.260187
O13	O	0.149600	0.630600	0.873000	-0.621141
O14	O	0.111900	0.545800	0.998000	-0.637747
O15	O	0.896500	0.726100	0.827300	-0.578291
O16	O	0.943600	0.630300	0.930900	-0.698333
O17	O	0.561300	0.869100	0.493100	-0.667741
O18	O	0.517700	0.754300	0.566300	-0.590682
O19	O	0.874500	0.048000	0.707400	-0.260187
O20	O	0.048500	0.096200	0.713400	-0.260187
O21	O	0.938400	0.225900	0.811100	-0.260187
O22	O	0.649600	0.873000	0.630600	-0.621141
O23	O	0.611900	0.998000	0.545800	-0.637747
O24	O	0.396500	0.827300	0.726100	-0.578291
O25	O	0.443600	0.930900	0.630300	-0.698333
O26	O	0.061300	0.493100	0.869100	-0.667741
O27	O	0.017700	0.566300	0.754300	-0.590682
O28	O	0.625500	0.292600	0.952000	-0.260187
O29	O	0.451500	0.286600	0.903800	-0.260187
O30	O	0.561600	0.188900	0.774100	-0.260187
O31	O	0.850400	0.369400	0.127000	-0.621141
O32	O	0.888100	0.454200	0.002000	-0.637747
O33	O	0.103500	0.273900	0.172700	-0.578291
O34	O	0.056400	0.369700	0.069100	-0.698333
O35	O	0.438700	0.130900	0.506900	-0.667741
O36	O	0.482300	0.245700	0.433700	-0.590682
O37	O	0.250000	0.824300	0.175700	-0.271958
O38	O	0.750000	0.175700	0.824300	-0.271958
