data_ADABAK01_clean_PM
_symmetry_space_group_name_H-M	'P1'
_cell_length_a	9.241300
_cell_length_b	9.284400
_cell_length_c	14.018837
_cell_angle_alpha	102.404057
_cell_angle_beta	109.244266
_cell_angle_gamma	90.000001
_symmetry_Int_Tables_number 1

loop_
_symmetry_equiv_pos_as_xyz
'x,y,z'

loop_
_atom_site_label
_atom_site_type_symbol
_atom_site_fract_x
_atom_site_fract_y
_atom_site_fract_z
_atom_site_charge
Cu1	Cu	0.645700	0.935600	0.620600	0.611675
Cu2	Cu	0.025100	0.564400	0.379400	0.611675
Cu3	Cu	0.354300	0.064400	0.379400	0.611675
Cu4	Cu	0.974900	0.435600	0.620600	0.611675
C1	C	0.788300	0.688600	0.698600	0.559353
C2	C	0.837600	0.690400	0.607400	0.151607
C3	C	0.623800	0.163600	0.794600	0.198998
C4	C	0.574800	0.264200	0.864200	-0.090413
C5	C	0.430400	0.233100	0.868600	0.118445
C6	C	0.341900	0.105800	0.804800	-0.090413
C7	C	0.401500	0.011600	0.737600	0.198998
C8	C	0.369200	0.337370	0.942400	0.008850
C9	C	0.089700	0.811400	0.301400	0.559353
C10	C	0.230200	0.809600	0.392600	0.151607
C11	C	0.829200	0.336400	0.205400	0.198998
C12	C	0.710600	0.235800	0.135800	-0.090413
C13	C	0.561800	0.266900	0.131400	0.118445
C14	C	0.537100	0.394200	0.195200	-0.090413
C15	C	0.663900	0.488400	0.262400	0.198998
C16	C	0.426800	0.162630	0.057600	0.008850
C17	C	0.211700	0.311400	0.301400	0.559353
C18	C	0.162400	0.309600	0.392600	0.151607
C19	C	0.376200	0.836400	0.205400	0.198998
C20	C	0.425200	0.735800	0.135800	-0.090413
C21	C	0.569600	0.766900	0.131400	0.118445
C22	C	0.658100	0.894200	0.195200	-0.090413
C23	C	0.598500	0.988400	0.262400	0.198998
C24	C	0.630800	0.662630	0.057600	0.008850
C25	C	0.910300	0.188600	0.698600	0.559353
C26	C	0.769800	0.190400	0.607400	0.151607
C27	C	0.170800	0.663600	0.794600	0.198998
C28	C	0.289400	0.764200	0.864200	-0.090413
C29	C	0.438200	0.733100	0.868600	0.118445
C30	C	0.462900	0.605800	0.804800	-0.090413
C31	C	0.336100	0.511600	0.737600	0.198998
C32	C	0.573200	0.837370	0.942400	0.008850
C33	C	0.304000	0.250000	0.000000	-0.053437
C34	C	0.696000	0.750000	0.000000	-0.053437
N1	N	0.759800	0.762600	0.537600	-0.142160
N2	N	0.827700	0.745400	0.465400	-0.095782
N3	N	0.944600	0.663200	0.493200	0.020103
N4	N	0.951700	0.627400	0.581400	-0.178771
N5	N	0.541000	0.039600	0.731600	-0.233378
N6	N	0.222200	0.737400	0.462400	-0.142160
N7	N	0.362300	0.754600	0.534600	-0.095782
N8	N	0.451400	0.836800	0.506800	0.020103
N9	N	0.370300	0.872600	0.418600	-0.178771
N10	N	0.809400	0.460400	0.268400	-0.233378
N11	N	0.240200	0.237400	0.462400	-0.142160
N12	N	0.172300	0.254600	0.534600	-0.095782
N13	N	0.055400	0.336800	0.506800	0.020103
N14	N	0.048300	0.372600	0.418600	-0.178771
N15	N	0.459000	0.960400	0.268400	-0.233378
N16	N	0.777800	0.262600	0.537600	-0.142160
N17	N	0.637700	0.245400	0.465400	-0.095782
N18	N	0.548600	0.163200	0.493200	0.020103
N19	N	0.629700	0.127400	0.581400	-0.178771
N20	N	0.190600	0.539600	0.731600	-0.233378
O1	O	0.851100	0.605200	0.754200	-0.498818
O2	O	0.685000	0.776000	0.708000	-0.511576
O3	O	0.096900	0.894800	0.245800	-0.498818
O4	O	0.977000	0.724000	0.292000	-0.511576
O5	O	0.148900	0.394800	0.245800	-0.498818
O6	O	0.315000	0.224000	0.292000	-0.511576
O7	O	0.903100	0.105200	0.754200	-0.498818
O8	O	0.023000	0.276000	0.708000	-0.511576
