data_ADAXEK_clean_PM
_symmetry_space_group_name_H-M	'P1'
_cell_length_a	7.166801
_cell_length_b	9.852400
_cell_length_c	12.372200
_cell_angle_alpha	88.714599
_cell_angle_beta	73.163997
_cell_angle_gamma	85.557898
_symmetry_Int_Tables_number 1

loop_
_symmetry_equiv_pos_as_xyz
'x,y,z'

loop_
_atom_site_label
_atom_site_type_symbol
_atom_site_fract_x
_atom_site_fract_y
_atom_site_fract_z
_atom_site_charge
Co1	Co	0.500000	0.500000	0.500000	1.109282
Co2	Co	0.000000	0.500000	0.500000	1.109282
H1	H	0.547800	0.143200	0.365800	0.099644
H2	H	0.104300	0.087700	0.369600	0.099644
H3	H	0.501900	0.302300	0.913400	0.125339
H4	H	0.596900	0.304800	0.719600	0.132167
H5	H	0.086400	0.856800	0.365800	0.099644
H6	H	0.526100	0.912300	0.369600	0.099644
H7	H	0.584700	0.697700	0.913400	0.125339
H8	H	0.683500	0.695200	0.719600	0.132167
H9	H	0.452200	0.856800	0.634200	0.099644
H10	H	0.895700	0.912300	0.630400	0.099644
H11	H	0.498100	0.697700	0.086600	0.125339
H12	H	0.403100	0.695200	0.280400	0.132167
H13	H	0.913600	0.143200	0.634200	0.099644
H14	H	0.473900	0.087700	0.630400	0.099644
H15	H	0.415300	0.302300	0.086600	0.125339
H16	H	0.316500	0.304800	0.280400	0.132167
C1	C	0.826270	0.141500	0.371460	-0.128632
C2	C	0.655500	0.085800	0.368600	-0.074792
C3	C	0.987200	0.052900	0.369800	-0.074792
C4	C	0.828040	0.291700	0.388920	0.671345
C5	C	0.537500	0.383100	0.875400	-0.118875
C6	C	0.594790	0.384000	0.759620	-0.033873
C7	C	0.802270	0.858500	0.371460	-0.128632
C8	C	0.975900	0.914200	0.368600	-0.074792
C9	C	0.643000	0.947100	0.369800	-0.074792
C10	C	0.783040	0.708300	0.388920	0.671345
C11	C	0.587100	0.616900	0.875400	-0.118875
C12	C	0.645590	0.616000	0.759620	-0.033873
C13	C	0.173730	0.858500	0.628540	-0.128632
C14	C	0.344500	0.914200	0.631400	-0.074792
C15	C	0.012800	0.947100	0.630200	-0.074792
C16	C	0.171960	0.708300	0.611080	0.671345
C17	C	0.462500	0.616900	0.124600	-0.118875
C18	C	0.405210	0.616000	0.240380	-0.033873
C19	C	0.197730	0.141500	0.628540	-0.128632
C20	C	0.024100	0.085800	0.631400	-0.074792
C21	C	0.357000	0.052900	0.630200	-0.074792
C22	C	0.216960	0.291700	0.611080	0.671345
C23	C	0.412900	0.383100	0.124600	-0.118875
C24	C	0.354410	0.384000	0.240380	-0.033873
C25	C	0.531400	0.500000	0.937200	0.069623
C26	C	0.468600	0.500000	0.062800	0.069623
N1	N	0.647700	0.500000	0.704600	0.349275
N2	N	0.352300	0.500000	0.295400	0.349275
O1	O	0.682540	0.366400	0.380720	-0.585154
O2	O	0.974990	0.330000	0.412820	-0.585154
O3	O	0.936740	0.633600	0.380720	-0.585154
O4	O	0.612190	0.670000	0.412820	-0.585154
O5	O	0.317460	0.633600	0.619280	-0.585154
O6	O	0.025010	0.670000	0.587180	-0.585154
O7	O	0.063260	0.366400	0.619280	-0.585154
O8	O	0.387810	0.330000	0.587180	-0.585154
O9	O	0.704140	0.500000	0.591720	-0.581913
O10	O	0.295860	0.500000	0.408280	-0.581913
