data_AGARUW_clean_PM
_symmetry_space_group_name_H-M	'P1'
_cell_length_a	8.521000
_cell_length_b	15.380000
_cell_length_c	18.477000
_cell_angle_alpha	90.000000
_cell_angle_beta	90.000000
_cell_angle_gamma	90.000000
_symmetry_Int_Tables_number 1

loop_
_symmetry_equiv_pos_as_xyz
'x,y,z'

loop_
_atom_site_label
_atom_site_type_symbol
_atom_site_fract_x
_atom_site_fract_y
_atom_site_fract_z
_atom_site_charge
La1	La	0.656040	0.715540	0.383240	2.133566
La2	La	0.843960	0.215540	0.616760	2.133566
La3	La	0.343960	0.284460	0.883240	2.133566
La4	La	0.156040	0.784460	0.116760	2.133566
La5	La	0.343960	0.284460	0.616760	2.133566
La6	La	0.156040	0.784460	0.383240	2.133566
La7	La	0.656040	0.715540	0.116760	2.133566
La8	La	0.843960	0.215540	0.883240	2.133566
H1	H	0.479600	0.981000	0.586300	0.122840
H2	H	0.033300	0.951000	0.544200	0.274882
H3	H	0.020400	0.481000	0.413700	0.122840
H4	H	0.466700	0.451000	0.455800	0.274882
H5	H	0.520400	0.019000	0.086300	0.122840
H6	H	0.966700	0.049000	0.044200	0.274882
H7	H	0.979600	0.519000	0.913700	0.122840
H8	H	0.533300	0.549000	0.955800	0.274882
H9	H	0.520400	0.019000	0.413700	0.122840
H10	H	0.966700	0.049000	0.455800	0.274882
H11	H	0.979600	0.519000	0.586300	0.122840
H12	H	0.533300	0.549000	0.544200	0.274882
H13	H	0.479600	0.981000	0.913700	0.122840
H14	H	0.033300	0.951000	0.955800	0.274882
H15	H	0.020400	0.481000	0.086300	0.122840
H16	H	0.466700	0.451000	0.044200	0.274882
C1	C	0.469100	0.821900	0.496500	0.687403
C2	C	0.359100	0.885000	0.528100	0.102513
C3	C	0.383300	0.959700	0.569000	-0.102095
C4	C	0.237300	0.996000	0.578900	-0.028370
C5	C	0.185900	0.078600	0.612200	0.697544
C6	C	0.030900	0.321900	0.503500	0.687403
C7	C	0.140900	0.385000	0.471900	0.102513
C8	C	0.116700	0.459700	0.431000	-0.102095
C9	C	0.262700	0.496000	0.421100	-0.028370
C10	C	0.314100	0.578600	0.387800	0.697544
C11	C	0.530900	0.178100	0.996500	0.687403
C12	C	0.640900	0.115000	0.028100	0.102513
C13	C	0.616700	0.040300	0.069000	-0.102095
C14	C	0.762700	0.004000	0.078900	-0.028370
C15	C	0.814100	0.921400	0.112200	0.697544
C16	C	0.969100	0.678100	0.003500	0.687403
C17	C	0.859100	0.615000	0.971900	0.102513
C18	C	0.883300	0.540300	0.931000	-0.102095
C19	C	0.737300	0.504000	0.921100	-0.028370
C20	C	0.685900	0.421400	0.887800	0.697544
C21	C	0.530900	0.178100	0.503500	0.687403
C22	C	0.640900	0.115000	0.471900	0.102513
C23	C	0.616700	0.040300	0.431000	-0.102095
C24	C	0.762700	0.004000	0.421100	-0.028370
C25	C	0.814100	0.921400	0.387800	0.697544
C26	C	0.969100	0.678100	0.496500	0.687403
C27	C	0.859100	0.615000	0.528100	0.102513
C28	C	0.883300	0.540300	0.569000	-0.102095
C29	C	0.737300	0.504000	0.578900	-0.028370
C30	C	0.685900	0.421400	0.612200	0.697544
C31	C	0.469100	0.821900	0.003500	0.687403
C32	C	0.359100	0.885000	0.971900	0.102513
C33	C	0.383300	0.959700	0.931000	-0.102095
C34	C	0.237300	0.996000	0.921100	-0.028370
C35	C	0.185900	0.078600	0.887800	0.697544
C36	C	0.030900	0.321900	0.996500	0.687403
C37	C	0.140900	0.385000	0.028100	0.102513
C38	C	0.116700	0.459700	0.069000	-0.102095
C39	C	0.262700	0.496000	0.078900	-0.028370
C40	C	0.314100	0.578600	0.112200	0.697544
C41	C	0.469700	0.750900	0.250000	0.900394
C42	C	0.030300	0.250900	0.750000	0.900394
C43	C	0.530300	0.249100	0.750000	0.900394
C44	C	0.969700	0.749100	0.250000	0.900394
N1	N	0.134200	0.942300	0.545100	0.002093
N2	N	0.204300	0.875000	0.513600	-0.392437
N3	N	0.365800	0.442300	0.454900	0.002093
N4	N	0.295700	0.375000	0.486400	-0.392437
N5	N	0.865800	0.057700	0.045100	0.002093
N6	N	0.795700	0.125000	0.013600	-0.392437
N7	N	0.634200	0.557700	0.954900	0.002093
N8	N	0.704300	0.625000	0.986400	-0.392437
N9	N	0.865800	0.057700	0.454900	0.002093
N10	N	0.795700	0.125000	0.486400	-0.392437
N11	N	0.634200	0.557700	0.545100	0.002093
N12	N	0.704300	0.625000	0.513600	-0.392437
N13	N	0.134200	0.942300	0.954900	0.002093
N14	N	0.204300	0.875000	0.986400	-0.392437
N15	N	0.365800	0.442300	0.045100	0.002093
N16	N	0.295700	0.375000	0.013600	-0.392437
O1	O	0.610300	0.824600	0.509900	-0.640476
O2	O	0.411000	0.765900	0.454200	-0.796860
O3	O	0.042800	0.094100	0.609100	-0.696397
O4	O	0.290000	0.125300	0.638700	-0.696397
O5	O	0.413300	0.773500	0.310800	-0.745336
O6	O	0.889700	0.324600	0.490100	-0.640476
O7	O	0.089000	0.265900	0.545800	-0.796860
O8	O	0.457200	0.594100	0.390900	-0.696397
O9	O	0.210000	0.625300	0.361300	-0.696397
O10	O	0.086700	0.273500	0.689200	-0.745336
O11	O	0.389700	0.175400	0.009900	-0.640476
O12	O	0.589000	0.234100	0.954200	-0.796860
O13	O	0.957200	0.905900	0.109100	-0.696397
O14	O	0.710000	0.874700	0.138700	-0.696397
O15	O	0.586700	0.226500	0.810800	-0.745336
O16	O	0.110300	0.675400	0.990100	-0.640476
O17	O	0.911000	0.734100	0.045800	-0.796860
O18	O	0.542800	0.405900	0.890900	-0.696397
O19	O	0.790000	0.374700	0.861300	-0.696397
O20	O	0.913300	0.726500	0.189200	-0.745336
O21	O	0.389700	0.175400	0.490100	-0.640476
O22	O	0.589000	0.234100	0.545800	-0.796860
O23	O	0.957200	0.905900	0.390900	-0.696397
O24	O	0.710000	0.874700	0.361300	-0.696397
O25	O	0.586700	0.226500	0.689200	-0.745336
O26	O	0.110300	0.675400	0.509900	-0.640476
O27	O	0.911000	0.734100	0.454200	-0.796860
O28	O	0.542800	0.405900	0.609100	-0.696397
O29	O	0.790000	0.374700	0.638700	-0.696397
O30	O	0.913300	0.726500	0.310800	-0.745336
O31	O	0.610300	0.824600	0.990100	-0.640476
O32	O	0.411000	0.765900	0.045800	-0.796860
O33	O	0.042800	0.094100	0.890900	-0.696397
O34	O	0.290000	0.125300	0.861300	-0.696397
O35	O	0.413300	0.773500	0.189200	-0.745336
O36	O	0.889700	0.324600	0.009900	-0.640476
O37	O	0.089000	0.265900	0.954200	-0.796860
O38	O	0.457200	0.594100	0.109100	-0.696397
O39	O	0.210000	0.625300	0.138700	-0.696397
O40	O	0.086700	0.273500	0.810800	-0.745336
O41	O	0.596400	0.705700	0.250000	-0.745336
O42	O	0.903600	0.205700	0.750000	-0.745336
O43	O	0.403600	0.294300	0.750000	-0.745336
O44	O	0.096400	0.794300	0.250000	-0.745336
