data_AMILUE_clean_PM
_symmetry_space_group_name_H-M	'P1'
_cell_length_a	12.340000
_cell_length_b	19.902900
_cell_length_c	19.902900
_cell_angle_alpha	102.772999
_cell_angle_beta	94.559300
_cell_angle_gamma	94.559299
_symmetry_Int_Tables_number 1

loop_
_symmetry_equiv_pos_as_xyz
'x,y,z'

loop_
_atom_site_label
_atom_site_type_symbol
_atom_site_fract_x
_atom_site_fract_y
_atom_site_fract_z
_atom_site_charge
Zn1	Zn	0.611900	0.076390	0.565100	0.910419
Zn2	Zn	0.808800	0.016870	0.526320	0.910419
Zn3	Zn	0.410500	0.339780	0.608170	0.895044
Zn4	Zn	0.500060	0.487280	0.748760	0.913390
Zn5	Zn	0.111900	0.565100	0.076390	0.910419
Zn6	Zn	0.308800	0.526320	0.016870	0.910419
Zn7	Zn	0.910500	0.608170	0.339780	0.895044
Zn8	Zn	0.000060	0.748760	0.487280	0.913390
H1	H	0.493800	0.200200	0.541800	0.086415
H2	H	0.553300	0.220800	0.619000	0.086415
H3	H	0.526900	0.143300	0.697500	0.086767
H4	H	0.451600	0.071400	0.671000	0.086767
H5	H	0.362200	0.040200	0.552000	0.086767
H6	H	0.378200	0.092500	0.501900	0.086767
H7	H	0.319900	0.251800	0.705800	0.090500
H8	H	0.449600	0.250100	0.717300	0.090500
H9	H	0.203800	0.142200	0.662800	0.078262
H10	H	0.258600	0.070900	0.648300	0.078262
H11	H	0.296500	0.199200	0.522400	0.090500
H12	H	0.227000	0.220500	0.587100	0.090500
H13	H	0.864900	0.872700	0.472100	0.084937
H14	H	0.917000	0.890800	0.551000	0.084937
H15	H	0.984800	0.022900	0.429100	0.086767
H16	H	0.906900	0.952900	0.397900	0.086767
H17	H	0.035000	0.998400	0.598000	0.086767
H18	H	0.062100	0.050300	0.549100	0.086767
H19	H	0.982800	0.844000	0.378600	0.088346
H20	H	0.111000	0.842000	0.397000	0.088346
H21	H	0.176700	0.019700	0.459300	0.078262
H22	H	0.226900	0.946700	0.447300	0.078262
H23	H	0.188100	0.869200	0.519800	0.088346
H24	H	0.108600	0.888900	0.579500	0.088346
H25	H	0.658700	0.859900	0.343900	0.103056
H26	H	0.278800	0.862600	0.323000	0.101103
H27	H	0.389500	0.946800	0.404600	0.096117
H28	H	0.640400	0.755100	0.246300	0.101103
H29	H	0.533600	0.673700	0.162300	0.096117
H30	H	0.260900	0.755000	0.229000	0.103056
H31	H	0.925600	0.159800	0.406000	0.096117
H32	H	0.971400	0.250600	0.354400	0.101103
H33	H	0.650800	0.244500	0.464100	0.103056
H34	H	0.932700	0.360600	0.324800	0.103056
H35	H	0.672200	0.453900	0.396100	0.096117
H36	H	0.618500	0.360800	0.441600	0.101103
H37	H	0.118900	0.341000	0.632600	0.103056
H38	H	0.977600	0.509000	0.799800	0.101103
H39	H	0.164200	0.503900	0.798700	0.096117
H40	H	0.928000	0.294000	0.582200	0.101103
H41	H	0.741700	0.297600	0.582600	0.096117
H42	H	0.788500	0.458400	0.751200	0.103056
H43	H	0.776800	0.850600	0.629200	0.103056
H44	H	0.441400	0.829200	0.721400	0.101103
H45	H	0.487300	0.923500	0.675700	0.096117
H46	H	0.818300	0.737500	0.651300	0.101103
H47	H	0.770200	0.641800	0.694600	0.096117
H48	H	0.484300	0.714000	0.743400	0.103056
H49	H	0.993800	0.541800	0.200200	0.086415
H50	H	0.053300	0.619000	0.220800	0.086415
H51	H	0.026900	0.697500	0.143300	0.086767
H52	H	0.951600	0.671000	0.071400	0.086767
H53	H	0.862200	0.552000	0.040200	0.086767
H54	H	0.878200	0.501900	0.092500	0.086767
H55	H	0.819900	0.705800	0.251800	0.090500
H56	H	0.949600	0.717300	0.250100	0.090500
H57	H	0.703800	0.662800	0.142200	0.078262
H58	H	0.758600	0.648300	0.070900	0.078262
H59	H	0.796500	0.522400	0.199200	0.090500
H60	H	0.727000	0.587100	0.220500	0.090500
H61	H	0.364900	0.472100	0.872700	0.084937
H62	H	0.417000	0.551000	0.890800	0.084937
H63	H	0.484800	0.429100	0.022900	0.086767
H64	H	0.406900	0.397900	0.952900	0.086767
H65	H	0.535000	0.598000	0.998400	0.086767
H66	H	0.562100	0.549100	0.050300	0.086767
H67	H	0.482800	0.378600	0.844000	0.088346
H68	H	0.611000	0.397000	0.842000	0.088346
H69	H	0.676700	0.459300	0.019700	0.078262
H70	H	0.726900	0.447300	0.946700	0.078262
H71	H	0.688100	0.519800	0.869200	0.088346
H72	H	0.608600	0.579500	0.888900	0.088346
H73	H	0.158700	0.343900	0.859900	0.103056
H74	H	0.778800	0.323000	0.862600	0.101103
H75	H	0.889500	0.404600	0.946800	0.096117
H76	H	0.140400	0.246300	0.755100	0.101103
H77	H	0.033600	0.162300	0.673700	0.096117
H78	H	0.760900	0.229000	0.755000	0.103056
H79	H	0.425600	0.406000	0.159800	0.096117
H80	H	0.471400	0.354400	0.250600	0.101103
H81	H	0.150800	0.464100	0.244500	0.103056
H82	H	0.432700	0.324800	0.360600	0.103056
H83	H	0.172200	0.396100	0.453900	0.096117
H84	H	0.118500	0.441600	0.360800	0.101103
H85	H	0.618900	0.632600	0.341000	0.103056
H86	H	0.477600	0.799800	0.509000	0.101103
H87	H	0.664200	0.798700	0.503900	0.096117
H88	H	0.428000	0.582200	0.294000	0.101103
H89	H	0.241700	0.582600	0.297600	0.096117
H90	H	0.288500	0.751200	0.458400	0.103056
H91	H	0.276800	0.629200	0.850600	0.103056
H92	H	0.941400	0.721400	0.829200	0.101103
H93	H	0.987300	0.675700	0.923500	0.096117
H94	H	0.318300	0.651300	0.737500	0.101103
H95	H	0.270200	0.694600	0.641800	0.096117
H96	H	0.984300	0.743400	0.714000	0.103056
C1	C	0.486000	0.197370	0.590190	0.136964
C2	C	0.460300	0.120380	0.667540	0.140003
C3	C	0.372000	0.089750	0.550530	0.140003
C4	C	0.382300	0.227520	0.687960	0.139433
C5	C	0.268700	0.120120	0.646080	0.135540
C6	C	0.291100	0.196920	0.571180	0.139433
C7	C	0.930500	0.894680	0.503620	0.137051
C8	C	0.971500	0.973620	0.430760	0.140003
C9	C	0.048200	0.000850	0.550090	0.140003
C10	C	0.046600	0.865960	0.411660	0.141022
C11	C	0.161600	0.970500	0.460700	0.135540
C12	C	0.122300	0.892810	0.532130	0.141022
C13	C	0.603700	0.960150	0.440090	0.668944
C14	C	0.535400	0.907960	0.382700	-0.129898
C15	C	0.581500	0.859840	0.339660	-0.083564
C16	C	0.517100	0.808010	0.287230	0.029738
C17	C	0.403000	0.808420	0.281420	0.029738
C18	C	0.355800	0.861310	0.326610	-0.152440
C19	C	0.421200	0.910700	0.375500	-0.034858
C20	C	0.563400	0.756320	0.242320	-0.152440
C21	C	0.499900	0.707680	0.192880	-0.034858
C22	C	0.385000	0.706610	0.186030	-0.129898
C23	C	0.338200	0.756120	0.231400	-0.083564
C24	C	0.317900	0.650120	0.133700	0.668944
C25	C	0.753800	0.136290	0.474810	0.668944
C26	C	0.782300	0.194800	0.439860	-0.129898
C27	C	0.879400	0.196020	0.407180	-0.034858
C28	C	0.906600	0.250060	0.377140	-0.152440
C29	C	0.840400	0.304880	0.379520	0.029738
C30	C	0.744100	0.303220	0.412300	0.029738
C31	C	0.716300	0.246320	0.442260	-0.083564
C32	C	0.870600	0.361170	0.350030	-0.086059
C33	C	0.810200	0.416490	0.358110	-0.121419
C34	C	0.714900	0.415770	0.391810	-0.037129
C35	C	0.683000	0.360510	0.418490	-0.152440
C36	C	0.852100	0.479910	0.333090	0.651756
C37	C	0.279300	0.418560	0.715160	0.686621
C38	C	0.157700	0.420860	0.714620	-0.140027
C39	C	0.089500	0.374580	0.666040	-0.083564
C40	C	0.974000	0.376110	0.664950	0.029738
C41	C	0.931300	0.425860	0.716880	0.029738
C42	C	0.005000	0.474550	0.766270	-0.152440
C43	C	0.115400	0.471660	0.765300	-0.034858
C44	C	0.900200	0.327960	0.616180	-0.152440
C45	C	0.789900	0.329110	0.616910	-0.034858
C46	C	0.747600	0.377770	0.669210	-0.140027
C47	C	0.817700	0.425280	0.717200	-0.083564
C48	C	0.627600	0.377970	0.670510	0.686621
C49	C	0.664800	0.955690	0.615430	0.668944
C50	C	0.637000	0.895830	0.646470	-0.129898
C51	C	0.708000	0.845620	0.646860	-0.083564
C52	C	0.679800	0.787110	0.673090	0.029738
C53	C	0.579200	0.780150	0.700250	0.029738
C54	C	0.508700	0.832720	0.701680	-0.152440
C55	C	0.536300	0.888840	0.674960	-0.034858
C56	C	0.750700	0.733710	0.670630	-0.152440
C57	C	0.722000	0.676910	0.696090	-0.034858
C58	C	0.622400	0.670000	0.724480	-0.134834
C59	C	0.552600	0.719610	0.725390	-0.083564
C60	C	0.586900	0.605100	0.745300	0.676617
C61	C	0.986000	0.590190	0.197370	0.136964
C62	C	0.960300	0.667540	0.120380	0.140003
C63	C	0.872000	0.550530	0.089750	0.140003
C64	C	0.882300	0.687960	0.227520	0.139433
C65	C	0.768700	0.646080	0.120120	0.135540
C66	C	0.791100	0.571180	0.196920	0.139433
C67	C	0.430500	0.503620	0.894680	0.137051
C68	C	0.471500	0.430760	0.973620	0.140003
C69	C	0.548200	0.550090	0.000850	0.140003
C70	C	0.546600	0.411660	0.865960	0.141022
C71	C	0.661600	0.460700	0.970500	0.135540
C72	C	0.622300	0.532130	0.892810	0.141022
C73	C	0.103700	0.440090	0.960150	0.668944
C74	C	0.035400	0.382700	0.907960	-0.129898
C75	C	0.081500	0.339660	0.859840	-0.083564
C76	C	0.017100	0.287230	0.808010	0.029738
C77	C	0.903000	0.281420	0.808420	0.029738
C78	C	0.855800	0.326610	0.861310	-0.152440
C79	C	0.921200	0.375500	0.910700	-0.034858
C80	C	0.063400	0.242320	0.756320	-0.152440
C81	C	0.999900	0.192880	0.707680	-0.034858
C82	C	0.885000	0.186030	0.706610	-0.129898
C83	C	0.838200	0.231400	0.756120	-0.083564
C84	C	0.817900	0.133700	0.650120	0.668944
C85	C	0.253800	0.474810	0.136290	0.668944
C86	C	0.282300	0.439860	0.194800	-0.129898
C87	C	0.379400	0.407180	0.196020	-0.034858
C88	C	0.406600	0.377140	0.250060	-0.152440
C89	C	0.340400	0.379520	0.304880	0.029738
C90	C	0.244100	0.412300	0.303220	0.029738
C91	C	0.216300	0.442260	0.246320	-0.083564
C92	C	0.370600	0.350030	0.361170	-0.086059
C93	C	0.310200	0.358110	0.416490	-0.121419
C94	C	0.214900	0.391810	0.415770	-0.037129
C95	C	0.183000	0.418490	0.360510	-0.152440
C96	C	0.352100	0.333090	0.479910	0.651756
C97	C	0.779300	0.715160	0.418560	0.686621
C98	C	0.657700	0.714620	0.420860	-0.140027
C99	C	0.589500	0.666040	0.374580	-0.083564
C100	C	0.474000	0.664950	0.376110	0.029738
C101	C	0.431300	0.716880	0.425860	0.029738
C102	C	0.505000	0.766270	0.474550	-0.152440
C103	C	0.615400	0.765300	0.471660	-0.034858
C104	C	0.400200	0.616180	0.327960	-0.152440
C105	C	0.289900	0.616910	0.329110	-0.034858
C106	C	0.247600	0.669210	0.377770	-0.140027
C107	C	0.317700	0.717200	0.425280	-0.083564
C108	C	0.127600	0.670510	0.377970	0.686621
C109	C	0.164800	0.615430	0.955690	0.668944
C110	C	0.137000	0.646470	0.895830	-0.129898
C111	C	0.208000	0.646860	0.845620	-0.083564
C112	C	0.179800	0.673090	0.787110	0.029738
C113	C	0.079200	0.700250	0.780150	0.029738
C114	C	0.008700	0.701680	0.832720	-0.152440
C115	C	0.036300	0.674960	0.888840	-0.034858
C116	C	0.250700	0.670630	0.733710	-0.152440
C117	C	0.222000	0.696090	0.676910	-0.034858
C118	C	0.122400	0.724480	0.670000	-0.134834
C119	C	0.052600	0.725390	0.719610	-0.083564
C120	C	0.086900	0.745300	0.605100	0.676617
N1	N	0.473600	0.123470	0.594130	-0.297124
N2	N	0.391500	0.233040	0.614260	-0.321004
N3	N	0.366200	0.154050	0.691750	-0.309966
N4	N	0.276000	0.124160	0.575660	-0.309966
N5	N	0.948000	0.969290	0.501910	-0.296172
N6	N	0.026200	0.857350	0.482470	-0.304964
N7	N	0.065600	0.938260	0.409420	-0.309728
N8	N	0.143000	0.966170	0.531350	-0.309728
N9	N	0.973600	0.594130	0.123470	-0.297124
N10	N	0.891500	0.614260	0.233040	-0.321004
N11	N	0.866200	0.691750	0.154050	-0.309966
N12	N	0.776000	0.575660	0.124160	-0.309966
N13	N	0.448000	0.501910	0.969290	-0.296172
N14	N	0.526200	0.482470	0.857350	-0.304964
N15	N	0.565600	0.409420	0.938260	-0.309728
N16	N	0.643000	0.531350	0.966170	-0.309728
O1	O	0.552800	0.005290	0.477190	-0.600216
O2	O	0.704700	0.954900	0.448460	-0.600216
O3	O	0.368100	0.610520	0.093320	-0.600216
O4	O	0.215600	0.646570	0.135010	-0.600216
O5	O	0.670400	0.139260	0.506520	-0.600216
O6	O	0.817700	0.088940	0.469760	-0.600216
O7	O	0.924900	0.474470	0.291930	-0.620663
O8	O	0.813100	0.533930	0.356550	-0.631004
O9	O	0.595900	0.998250	0.615250	-0.600216
O10	O	0.338530	0.470980	0.748300	-0.602747
O11	O	0.314330	0.363960	0.683260	-0.613751
O12	O	0.569590	0.345470	0.615810	-0.613751
O13	O	0.589900	0.407430	0.725510	-0.602747
O14	O	0.754100	0.957290	0.589590	-0.600216
O15	O	0.649100	0.556800	0.739100	-0.602734
O16	O	0.494400	0.595630	0.763690	-0.602734
O17	O	0.052800	0.477190	0.005290	-0.600216
O18	O	0.204700	0.448460	0.954900	-0.600216
O19	O	0.868100	0.093320	0.610520	-0.600216
O20	O	0.715600	0.135010	0.646570	-0.600216
O21	O	0.170400	0.506520	0.139260	-0.600216
O22	O	0.317700	0.469760	0.088940	-0.600216
O23	O	0.424900	0.291930	0.474470	-0.620663
O24	O	0.313100	0.356550	0.533930	-0.631004
O25	O	0.095900	0.615250	0.998250	-0.600216
O26	O	0.838530	0.748300	0.470980	-0.602747
O27	O	0.814330	0.683260	0.363960	-0.613751
O28	O	0.069590	0.615810	0.345470	-0.613751
O29	O	0.089900	0.725510	0.407430	-0.602747
O30	O	0.254100	0.589590	0.957290	-0.600216
O31	O	0.149100	0.739100	0.556800	-0.602734
O32	O	0.994400	0.763690	0.595630	-0.602734
