data_ANENIR_clean_PM
_symmetry_space_group_name_H-M	'P1'
_cell_length_a	9.779200
_cell_length_b	11.333100
_cell_length_c	15.924000
_cell_angle_alpha	71.042002
_cell_angle_beta	85.290000
_cell_angle_gamma	70.907002
_symmetry_Int_Tables_number 1

loop_
_symmetry_equiv_pos_as_xyz
'x,y,z'

loop_
_atom_site_label
_atom_site_type_symbol
_atom_site_fract_x
_atom_site_fract_y
_atom_site_fract_z
_atom_site_charge
La1	La	0.461040	0.094490	0.915940	2.159192
La2	La	0.901130	0.993160	0.937220	2.159192
H1	H	0.709000	0.728000	0.452000	0.069926
H2	H	0.544500	0.816100	0.576000	0.100838
H3	H	0.520500	0.889800	0.698900	0.097486
H4	H	0.933100	0.861000	0.697000	0.097486
H5	H	0.961600	0.784400	0.575800	0.100838
H6	H	0.662800	0.967100	0.398400	0.072045
H7	H	0.767900	0.981300	0.318600	0.072045
H8	H	0.672400	0.889700	0.331300	0.072045
H9	H	0.974000	0.580000	0.535000	0.069926
H10	H	0.663000	0.517700	0.508400	0.100838
H11	H	0.552000	0.383600	0.621100	0.097486
H12	H	0.840300	0.346700	0.801200	0.097486
H13	H	0.946400	0.480100	0.690900	0.100838
H14	H	0.995300	0.357500	0.478200	0.072045
H15	H	0.075900	0.432700	0.401000	0.072045
H16	H	0.089200	0.434600	0.498000	0.072045
H17	H	0.394000	0.554000	0.366000	0.069926
H18	H	0.649600	0.609600	0.338800	0.100838
H19	H	0.784000	0.710200	0.237400	0.097486
H20	H	0.534000	0.731600	0.044400	0.097486
H21	H	0.415600	0.607300	0.146600	0.100838
H22	H	0.208900	0.717400	0.269500	0.072045
H23	H	0.134600	0.665600	0.211700	0.072045
H24	H	0.106000	0.634700	0.313700	0.072045
H25	H	0.446000	0.330000	0.389000	0.069926
H26	H	0.764900	0.326300	0.262100	0.100838
H27	H	0.825400	0.245900	0.143600	0.097486
H28	H	0.428800	0.207000	0.155800	0.097486
H29	H	0.384200	0.271300	0.278100	0.100838
H30	H	0.733600	0.167300	0.434000	0.072045
H31	H	0.774900	0.227900	0.500000	0.072045
H32	H	0.624800	0.203900	0.506500	0.072045
H33	H	0.049000	0.147000	0.397000	0.069926
H34	H	0.972400	0.037600	0.572800	0.100838
H35	H	0.966500	0.068600	0.710200	0.097486
H36	H	0.343800	0.145100	0.661600	0.097486
H37	H	0.349700	0.114000	0.524200	0.100838
H38	H	0.025300	0.321400	0.325300	0.072045
H39	H	0.157300	0.315200	0.262000	0.072045
H40	H	0.066000	0.220800	0.271900	0.072045
H41	H	0.087000	0.942000	0.456000	0.069926
H42	H	0.405200	0.956200	0.311100	0.100838
H43	H	0.417200	0.957700	0.164900	0.097486
H44	H	0.994300	0.986200	0.170100	0.097486
H45	H	0.990300	0.007700	0.309500	0.100838
H46	H	0.246200	0.731700	0.484400	0.072045
H47	H	0.395700	0.720800	0.438200	0.072045
H48	H	0.387100	0.692400	0.541300	0.072045
C1	C	0.773400	0.740500	0.487500	0.112312
C2	C	0.759800	0.788300	0.564000	0.002905
C3	C	0.624300	0.822700	0.599900	-0.138016
C4	C	0.610800	0.868000	0.673700	-0.041590
C5	C	0.721200	0.880900	0.708800	-0.146861
C6	C	0.855100	0.851000	0.673500	-0.041590
C7	C	0.870800	0.804900	0.600600	-0.138016
C8	C	0.703000	0.937300	0.786500	0.754375
C9	C	0.726000	0.921800	0.361500	0.015558
C10	C	0.878200	0.597000	0.512600	0.112312
C11	C	0.813600	0.507900	0.586900	0.002905
C12	C	0.699200	0.483500	0.566600	-0.138016
C13	C	0.630500	0.403600	0.635000	-0.038117
C14	C	0.684700	0.357000	0.722800	-0.156174
C15	C	0.803000	0.381700	0.743200	-0.038117
C16	C	0.868300	0.459600	0.676900	-0.138016
C17	C	0.612900	0.270800	0.792400	0.730804
C18	C	0.026000	0.434200	0.455300	0.015558
C19	C	0.434400	0.514300	0.320600	0.112312
C20	C	0.517300	0.594600	0.252500	0.002905
C21	C	0.629100	0.630900	0.278700	-0.138016
C22	C	0.705400	0.695000	0.218700	-0.038117
C23	C	0.669600	0.738700	0.130100	-0.156174
C24	C	0.559300	0.704500	0.104300	-0.038117
C25	C	0.486800	0.631400	0.165700	-0.138016
C26	C	0.741800	0.820400	0.062700	0.730804
C27	C	0.176900	0.646100	0.269000	0.015558
C28	C	0.516600	0.369100	0.356700	0.112312
C29	C	0.569400	0.304200	0.282400	0.002905
C30	C	0.699500	0.297600	0.241400	-0.138016
C31	C	0.736600	0.249600	0.170400	-0.041590
C32	C	0.635700	0.206200	0.139400	-0.146861
C33	C	0.501200	0.224700	0.179200	-0.041590
C34	C	0.472500	0.267300	0.250600	-0.138016
C35	C	0.672000	0.152600	0.065000	0.754375
C36	C	0.697000	0.228600	0.466600	0.015558
C37	C	0.129800	0.082300	0.434800	0.112312
C38	C	0.161600	0.072700	0.534900	0.002905
C39	C	0.046800	0.059100	0.590600	-0.138016
C40	C	0.043300	0.077700	0.672900	-0.041590
C41	C	0.154600	0.109900	0.699500	-0.146861
C42	C	0.269300	0.123500	0.643800	-0.041590
C43	C	0.272900	0.104900	0.561500	-0.138016
C44	C	0.150300	0.121800	0.790800	0.754375
C45	C	0.104000	0.264000	0.302500	0.015558
C46	C	0.180200	0.944000	0.433400	0.112312
C47	C	0.199800	0.954900	0.331900	0.002905
C48	C	0.324200	0.957600	0.283600	-0.138016
C49	C	0.330800	0.962300	0.194900	-0.041590
C50	C	0.205700	0.974000	0.151300	-0.146861
C51	C	0.077700	0.982200	0.196600	-0.041590
C52	C	0.079100	0.984000	0.283000	-0.138016
C53	C	0.211900	0.963500	0.058400	0.754375
C54	C	0.338000	0.745300	0.485200	0.015558
O1	O	0.574900	0.973600	0.812600	-0.729087
O2	O	0.810000	0.943700	0.815100	-0.729087
O3	O	0.837700	0.814800	0.414700	-0.303039
O4	O	0.487500	0.287400	0.781700	-0.654903
O5	O	0.689400	0.186400	0.857100	-0.838249
O6	O	0.892500	0.558600	0.437000	-0.303039
O7	O	0.874700	0.811000	0.074900	-0.654903
O8	O	0.678100	0.899500	0.989100	-0.838249
O9	O	0.299600	0.525800	0.287100	-0.303039
O10	O	0.795300	0.125000	0.037600	-0.729087
O11	O	0.563900	0.134500	0.033000	-0.729087
O12	O	0.636000	0.354200	0.407800	-0.303039
O13	O	0.038700	0.116400	0.834500	-0.729087
O14	O	0.257000	0.142900	0.816700	-0.729087
O15	O	0.200900	0.164600	0.377000	-0.303039
O16	O	0.322900	0.972200	0.014300	-0.729087
O17	O	0.111100	0.946000	0.031300	-0.729087
O18	O	0.315800	0.876200	0.473600	-0.303039
