data_AQETUM_clean_PM
_symmetry_space_group_name_H-M	'P1'
_cell_length_a	9.635500
_cell_length_b	13.996700
_cell_length_c	14.174000
_cell_angle_alpha	90.000000
_cell_angle_beta	96.174001
_cell_angle_gamma	90.000000
_symmetry_Int_Tables_number 1

loop_
_symmetry_equiv_pos_as_xyz
'x,y,z'

loop_
_atom_site_label
_atom_site_type_symbol
_atom_site_fract_x
_atom_site_fract_y
_atom_site_fract_z
_atom_site_charge
Mn1	Mn	0.646800	0.785400	0.006700	1.116804
Mn2	Mn	0.163000	0.883600	0.339400	1.116804
Mn3	Mn	0.353200	0.285400	0.493300	1.116804
Mn4	Mn	0.837000	0.383600	0.160600	1.116804
Mn5	Mn	0.353200	0.214600	0.993300	1.116804
Mn6	Mn	0.837000	0.116400	0.660600	1.116804
Mn7	Mn	0.646800	0.714600	0.506700	1.116804
Mn8	Mn	0.163000	0.616400	0.839400	1.116804
Nb1	Nb	0.338700	0.950500	0.706100	0.298852
Nb2	Nb	0.661300	0.450500	0.793900	0.298852
Nb3	Nb	0.661300	0.049500	0.293900	0.298852
Nb4	Nb	0.338700	0.549500	0.206100	0.298852
C1	C	0.474100	0.875400	0.821900	0.130033
C2	C	0.255200	0.905000	0.559400	0.130033
C3	C	0.117000	0.999100	0.712600	0.130033
C4	C	0.485500	0.649200	0.141000	0.130033
C5	C	0.557100	0.008200	0.709600	0.130033
C6	C	0.667600	0.947200	0.172400	0.130033
C7	C	0.681100	0.586500	0.877300	0.130033
C8	C	0.234700	0.820600	0.759400	0.130033
C9	C	0.525900	0.375400	0.678100	0.130033
C10	C	0.744800	0.405000	0.940600	0.130033
C11	C	0.883000	0.499100	0.787400	0.130033
C12	C	0.514500	0.149200	0.359000	0.130033
C13	C	0.442900	0.508200	0.790400	0.130033
C14	C	0.332400	0.447200	0.327600	0.130033
C15	C	0.318900	0.086500	0.622700	0.130033
C16	C	0.765300	0.320600	0.740600	0.130033
C17	C	0.525900	0.124600	0.178100	0.130033
C18	C	0.744800	0.095000	0.440600	0.130033
C19	C	0.883000	0.000900	0.287400	0.130033
C20	C	0.514500	0.350800	0.859000	0.130033
C21	C	0.442900	0.991800	0.290400	0.130033
C22	C	0.332400	0.052800	0.827600	0.130033
C23	C	0.318900	0.413500	0.122700	0.130033
C24	C	0.765300	0.179400	0.240600	0.130033
C25	C	0.474100	0.624600	0.321900	0.130033
C26	C	0.255200	0.595000	0.059400	0.130033
C27	C	0.117000	0.500900	0.212600	0.130033
C28	C	0.485500	0.850800	0.641000	0.130033
C29	C	0.557100	0.491800	0.209600	0.130033
C30	C	0.667600	0.552800	0.672400	0.130033
C31	C	0.681100	0.913500	0.377300	0.130033
C32	C	0.234700	0.679400	0.259400	0.130033
N1	N	0.214000	0.885300	0.483200	-0.446591
N2	N	0.541900	0.839000	0.882400	-0.446591
N3	N	0.005000	0.026200	0.714700	-0.446591
N4	N	0.561900	0.697100	0.106300	-0.446591
N5	N	0.665700	0.040200	0.704700	-0.446591
N6	N	0.670200	0.896500	0.109600	-0.446591
N7	N	0.690600	0.654700	0.921900	-0.446591
N8	N	0.188800	0.753000	0.789100	-0.446591
N9	N	0.786000	0.385300	0.016800	-0.446591
N10	N	0.458100	0.339000	0.617600	-0.446591
N11	N	0.995000	0.526200	0.785300	-0.446591
N12	N	0.438100	0.197100	0.393700	-0.446591
N13	N	0.334300	0.540200	0.795300	-0.446591
N14	N	0.329800	0.396500	0.390400	-0.446591
N15	N	0.309400	0.154700	0.578100	-0.446591
N16	N	0.811200	0.253000	0.710900	-0.446591
N17	N	0.786000	0.114700	0.516800	-0.446591
N18	N	0.458100	0.161000	0.117600	-0.446591
N19	N	0.995000	0.973800	0.285300	-0.446591
N20	N	0.438100	0.302900	0.893700	-0.446591
N21	N	0.334300	0.959800	0.295300	-0.446591
N22	N	0.329800	0.103500	0.890400	-0.446591
N23	N	0.309400	0.345300	0.078100	-0.446591
N24	N	0.811200	0.247000	0.210900	-0.446591
N25	N	0.214000	0.614700	0.983200	-0.446591
N26	N	0.541900	0.661000	0.382400	-0.446591
N27	N	0.005000	0.473800	0.214700	-0.446591
N28	N	0.561900	0.802900	0.606300	-0.446591
N29	N	0.665700	0.459800	0.204700	-0.446591
N30	N	0.670200	0.603500	0.609600	-0.446591
N31	N	0.690600	0.845300	0.421900	-0.446591
N32	N	0.188800	0.747000	0.289100	-0.446591
