data_AQMAND_clean_PM
_symmetry_space_group_name_H-M	'P1'
_cell_length_a	10.612000
_cell_length_b	10.612000
_cell_length_c	10.985300
_cell_angle_alpha	101.305999
_cell_angle_beta	117.492000
_cell_angle_gamma	108.613999
_symmetry_Int_Tables_number 1

loop_
_symmetry_equiv_pos_as_xyz
'x,y,z'

loop_
_atom_site_label
_atom_site_type_symbol
_atom_site_fract_x
_atom_site_fract_y
_atom_site_fract_z
_atom_site_charge
Nd1	Nd	0.948330	0.135550	0.879800	2.328990
Nd2	Nd	0.255750	0.568530	0.620200	2.328990
Nd3	Nd	0.051670	0.864450	0.120200	2.328990
Nd4	Nd	0.744250	0.431470	0.379800	2.328990
C1	C	0.902200	0.125900	0.124900	0.824157
C2	C	0.548500	0.929000	0.744500	0.829928
C3	C	0.507400	0.051000	0.716800	-0.160804
C4	C	0.592500	0.146900	0.662800	0.696508
C5	C	0.001000	0.277300	0.375100	0.824157
C6	C	0.184500	0.304000	0.755500	0.829928
C7	C	0.334200	0.290600	0.783200	-0.160804
C8	C	0.484100	0.429700	0.837200	0.696508
C9	C	0.097800	0.874100	0.875100	0.824157
C10	C	0.451500	0.071000	0.255500	0.829928
C11	C	0.492600	0.949000	0.283200	-0.160804
C12	C	0.407500	0.853100	0.337200	0.696508
C13	C	0.999000	0.722700	0.624900	0.824157
C14	C	0.815500	0.696000	0.244500	0.829928
C15	C	0.665800	0.709400	0.216800	-0.160804
C16	C	0.515900	0.570300	0.162800	0.696508
C17	C	0.876200	0.126200	0.250000	-0.364291
C18	C	0.123800	0.873800	0.750000	-0.364291
O1	O	0.867400	0.206800	0.058600	-0.701053
O2	O	0.959800	0.049300	0.090100	-0.903704
O3	O	0.683400	0.944200	0.790000	-0.744548
O4	O	0.429400	0.817700	0.711500	-0.744548
O5	O	0.742300	0.192400	0.728100	-0.763002
O6	O	0.515400	0.187100	0.571300	-0.479777
O7	O	0.148200	0.308800	0.441400	-0.701053
O8	O	0.959200	0.369700	0.409900	-0.903704
O9	O	0.154200	0.393400	0.710000	-0.744548
O10	O	0.106200	0.217900	0.788500	-0.744548
O11	O	0.464300	0.514200	0.771900	-0.763002
O12	O	0.615800	0.444100	0.928700	-0.479777
O13	O	0.132600	0.793200	0.941400	-0.701053
O14	O	0.040200	0.950700	0.909900	-0.903704
O15	O	0.316600	0.055800	0.210000	-0.744548
O16	O	0.570600	0.182300	0.288500	-0.744548
O17	O	0.257700	0.807600	0.271900	-0.763002
O18	O	0.484600	0.812900	0.428700	-0.479777
O19	O	0.851800	0.691200	0.558600	-0.701053
O20	O	0.040800	0.630300	0.590100	-0.903704
O21	O	0.845800	0.606600	0.290000	-0.744548
O22	O	0.893800	0.782100	0.211500	-0.744548
O23	O	0.535700	0.485800	0.228100	-0.763002
O24	O	0.384200	0.555900	0.071300	-0.479777
