data_AXOCEW_clean_PM
_symmetry_space_group_name_H-M	'P1'
_cell_length_a	7.292000
_cell_length_b	18.820000
_cell_length_c	20.518600
_cell_angle_alpha	106.983000
_cell_angle_beta	90.000000
_cell_angle_gamma	90.000000
_symmetry_Int_Tables_number 1

loop_
_symmetry_equiv_pos_as_xyz
'x,y,z'

loop_
_atom_site_label
_atom_site_type_symbol
_atom_site_fract_x
_atom_site_fract_y
_atom_site_fract_z
_atom_site_charge
Zn1	Zn	0.646210	0.527650	0.977760	1.054029
Zn2	Zn	0.646210	0.972350	0.522240	1.054029
Zn3	Zn	0.353790	0.472350	0.022240	1.054029
Zn4	Zn	0.353790	0.027650	0.477760	1.054029
H1	H	0.968200	0.587800	0.162700	0.102954
H2	H	0.092800	0.608700	0.271400	0.109819
H3	H	0.625000	0.541500	0.338600	0.109819
H4	H	0.497100	0.524200	0.230600	0.102954
H5	H	0.864100	0.719000	0.381700	0.109819
H6	H	0.000700	0.834400	0.418600	0.102954
H7	H	0.443400	0.744600	0.475900	0.102954
H8	H	0.302900	0.629400	0.444800	0.109819
H9	H	0.968200	0.912200	0.337300	0.102954
H10	H	0.092800	0.891300	0.228600	0.109819
H11	H	0.625000	0.958500	0.161400	0.109819
H12	H	0.497100	0.975800	0.269400	0.102954
H13	H	0.864100	0.781000	0.118300	0.109819
H14	H	0.000700	0.665600	0.081400	0.102954
H15	H	0.443400	0.755400	0.024100	0.102954
H16	H	0.302900	0.870600	0.055200	0.109819
H17	H	0.031800	0.412200	0.837300	0.102954
H18	H	0.907200	0.391300	0.728600	0.109819
H19	H	0.375000	0.458500	0.661400	0.109819
H20	H	0.502900	0.475800	0.769400	0.102954
H21	H	0.135900	0.281000	0.618300	0.109819
H22	H	0.999300	0.165600	0.581400	0.102954
H23	H	0.556600	0.255400	0.524100	0.102954
H24	H	0.697100	0.370600	0.555200	0.109819
H25	H	0.031800	0.087800	0.662700	0.102954
H26	H	0.907200	0.108700	0.771400	0.109819
H27	H	0.375000	0.041500	0.838600	0.109819
H28	H	0.502900	0.024200	0.730600	0.102954
H29	H	0.135900	0.219000	0.881700	0.109819
H30	H	0.999300	0.334400	0.918600	0.102954
H31	H	0.556600	0.244600	0.975900	0.102954
H32	H	0.697100	0.129400	0.944800	0.109819
C1	C	0.638400	0.537100	0.116200	0.697567
C2	C	0.719500	0.554100	0.186900	-0.139724
C3	C	0.899300	0.579000	0.197700	-0.019542
C4	C	0.973900	0.590500	0.262900	-0.144206
C5	C	0.874800	0.575500	0.315300	0.086740
C6	C	0.693900	0.550800	0.303800	-0.144206
C7	C	0.617600	0.540400	0.238800	-0.019542
C8	C	0.972600	0.584300	0.384000	-0.289549
C9	C	0.844000	0.582900	0.442500	0.682889
C10	C	0.107800	0.519000	0.372100	0.682889
C11	C	0.071900	0.660700	0.407600	0.086740
C12	C	0.980800	0.723700	0.400800	-0.144206
C13	C	0.063600	0.792800	0.422500	-0.019542
C14	C	0.237500	0.801000	0.449600	-0.139724
C15	C	0.326100	0.739600	0.457300	-0.019542
C16	C	0.242700	0.670100	0.437600	-0.144206
C17	C	0.327600	0.876600	0.470500	0.697567
C18	C	0.638400	0.962900	0.383800	0.697567
C19	C	0.719500	0.945900	0.313100	-0.139724
C20	C	0.899300	0.921000	0.302300	-0.019542
C21	C	0.973900	0.909500	0.237100	-0.144206
C22	C	0.874800	0.924500	0.184700	0.086740
C23	C	0.693900	0.949200	0.196200	-0.144206
C24	C	0.617600	0.959600	0.261200	-0.019542
C25	C	0.972600	0.915700	0.116000	-0.289549
C26	C	0.844000	0.917100	0.057500	0.682889
C27	C	0.107800	0.981000	0.127900	0.682889
C28	C	0.071900	0.839300	0.092400	0.086740
C29	C	0.980800	0.776300	0.099200	-0.144206
C30	C	0.063600	0.707200	0.077500	-0.019542
C31	C	0.237500	0.699000	0.050400	-0.139724
C32	C	0.326100	0.760400	0.042700	-0.019542
C33	C	0.242700	0.829900	0.062400	-0.144206
C34	C	0.327600	0.623400	0.029500	0.697567
C35	C	0.361600	0.462900	0.883800	0.697567
C36	C	0.280500	0.445900	0.813100	-0.139724
C37	C	0.100700	0.421000	0.802300	-0.019542
C38	C	0.026100	0.409500	0.737100	-0.144206
C39	C	0.125200	0.424500	0.684700	0.086740
C40	C	0.306100	0.449200	0.696200	-0.144206
C41	C	0.382400	0.459600	0.761200	-0.019542
C42	C	0.027400	0.415700	0.616000	-0.289549
C43	C	0.156000	0.417100	0.557500	0.682889
C44	C	0.892200	0.481000	0.627900	0.682889
C45	C	0.928100	0.339300	0.592400	0.086740
C46	C	0.019200	0.276300	0.599200	-0.144206
C47	C	0.936400	0.207200	0.577500	-0.019542
C48	C	0.762500	0.199000	0.550400	-0.139724
C49	C	0.673900	0.260400	0.542700	-0.019542
C50	C	0.757300	0.329900	0.562400	-0.144206
C51	C	0.672400	0.123400	0.529500	0.697567
C52	C	0.361600	0.037100	0.616200	0.697567
C53	C	0.280500	0.054100	0.686900	-0.139724
C54	C	0.100700	0.079000	0.697700	-0.019542
C55	C	0.026100	0.090500	0.762900	-0.144206
C56	C	0.125200	0.075500	0.815300	0.086740
C57	C	0.306100	0.050800	0.803800	-0.144206
C58	C	0.382400	0.040400	0.738800	-0.019542
C59	C	0.027400	0.084300	0.884000	-0.289549
C60	C	0.156000	0.082900	0.942500	0.682889
C61	C	0.892200	0.019000	0.872100	0.682889
C62	C	0.928100	0.160700	0.907600	0.086740
C63	C	0.019200	0.223700	0.900800	-0.144206
C64	C	0.936400	0.292800	0.922500	-0.019542
C65	C	0.762500	0.301000	0.949600	-0.139724
C66	C	0.673900	0.239600	0.957300	-0.019542
C67	C	0.757300	0.170100	0.937600	-0.144206
C68	C	0.672400	0.376600	0.970500	0.697567
O1	O	0.728100	0.554100	0.072000	-0.601540
O2	O	0.483900	0.505700	0.108700	-0.601540
O3	O	0.484700	0.881500	0.496800	-0.601540
O4	O	0.242500	0.929500	0.458100	-0.601540
O5	O	0.728100	0.945900	0.428000	-0.601540
O6	O	0.483900	0.994300	0.391300	-0.601540
O7	O	0.484700	0.618500	0.003200	-0.601540
O8	O	0.242500	0.570500	0.041900	-0.601540
O9	O	0.271900	0.445900	0.928000	-0.601540
O10	O	0.516100	0.494300	0.891300	-0.601540
O11	O	0.515300	0.118500	0.503200	-0.601540
O12	O	0.757500	0.070500	0.541900	-0.601540
O13	O	0.271900	0.054100	0.572000	-0.601540
O14	O	0.516100	0.005700	0.608700	-0.601540
O15	O	0.515300	0.381500	0.996800	-0.601540
O16	O	0.757500	0.429500	0.958100	-0.601540
F1	F	0.767300	0.515300	0.433000	-0.201561
F2	F	0.927800	0.600500	0.502800	-0.201561
F3	F	0.705700	0.630900	0.448400	-0.201561
F4	F	0.182000	0.511300	0.429200	-0.201561
F5	F	0.248300	0.524100	0.331200	-0.201561
F6	F	0.025100	0.454100	0.340800	-0.201561
F7	F	0.767300	0.984700	0.067000	-0.201561
F8	F	0.927800	0.899500	0.997200	-0.201561
F9	F	0.705700	0.869100	0.051600	-0.201561
F10	F	0.182000	0.988700	0.070800	-0.201561
F11	F	0.248300	0.975900	0.168800	-0.201561
F12	F	0.025100	0.045900	0.159200	-0.201561
F13	F	0.232700	0.484700	0.567000	-0.201561
F14	F	0.072200	0.399500	0.497200	-0.201561
F15	F	0.294300	0.369100	0.551600	-0.201561
F16	F	0.818000	0.488700	0.570800	-0.201561
F17	F	0.751700	0.475900	0.668800	-0.201561
F18	F	0.974900	0.545900	0.659200	-0.201561
F19	F	0.232700	0.015300	0.933000	-0.201561
F20	F	0.072200	0.100500	0.002800	-0.201561
F21	F	0.294300	0.130900	0.948400	-0.201561
F22	F	0.818000	0.011300	0.929200	-0.201561
F23	F	0.751700	0.024100	0.831200	-0.201561
F24	F	0.974900	0.954100	0.840800	-0.201561
