data_AYUWUM_clean_PM
_symmetry_space_group_name_H-M	'P1'
_cell_length_a	9.998000
_cell_length_b	16.216000
_cell_length_c	16.663000
_cell_angle_alpha	94.899000
_cell_angle_beta	102.409999
_cell_angle_gamma	96.101000
_symmetry_Int_Tables_number 1

loop_
_symmetry_equiv_pos_as_xyz
'x,y,z'

loop_
_atom_site_label
_atom_site_type_symbol
_atom_site_fract_x
_atom_site_fract_y
_atom_site_fract_z
_atom_site_charge
Na1	Na	0.110600	0.946200	0.452500	1.030468
Na2	Na	0.472700	0.104000	0.541800	0.870007
Na3	Na	0.252000	0.156100	0.863200	0.993731
Na4	Na	0.889400	0.053800	0.547500	1.030468
Na5	Na	0.527300	0.896000	0.458200	0.870007
Na6	Na	0.748000	0.843900	0.136800	0.993731
H1	H	0.717000	0.501600	0.156700	0.115997
H2	H	0.344200	0.585500	0.153200	0.115997
H3	H	0.941500	0.246100	0.233900	0.117362
H4	H	0.118400	0.483400	0.205800	0.117362
H5	H	0.288700	0.948900	0.117100	0.115997
H6	H	0.959900	0.042200	0.182500	0.115997
H7	H	0.504200	0.043300	0.170900	0.115997
H8	H	0.713300	0.287400	0.208100	0.115997
H9	H	0.936100	0.507600	0.281400	0.119175
H10	H	0.838900	0.438500	0.306800	0.119175
H11	H	0.954200	0.502300	0.387300	0.119175
H12	H	0.165800	0.492000	0.413800	0.119175
H13	H	0.249200	0.427900	0.380900	0.119175
H14	H	0.206600	0.501000	0.330900	0.119175
H15	H	0.921300	0.313100	0.359300	0.119175
H16	H	0.026200	0.376200	0.440500	0.119175
H17	H	0.076900	0.302300	0.378500	0.119175
H18	H	0.843800	0.257300	0.905000	0.108542
H19	H	0.879100	0.357600	0.938400	0.108542
H20	H	0.126200	0.334100	0.811700	0.406908
H21	H	0.262100	0.352700	0.980700	0.396365
H22	H	0.070400	0.187500	0.985700	0.415376
H23	H	0.481300	0.260600	0.958900	0.415376
H24	H	0.894700	0.881800	0.547900	0.463519
H25	H	0.036700	0.913900	0.611900	0.463519
H26	H	0.290000	0.002100	0.602900	0.467814
H27	H	0.223300	0.066100	0.585700	0.467814
H28	H	0.357300	0.005200	0.375300	0.466641
H29	H	0.471000	0.049100	0.373900	0.466641
H30	H	0.262600	0.802700	0.447000	0.467814
H31	H	0.293800	0.820700	0.530200	0.467814
H32	H	0.283000	0.498400	0.843300	0.115997
H33	H	0.655800	0.414500	0.846800	0.115997
H34	H	0.058500	0.753900	0.766100	0.117362
H35	H	0.881600	0.516600	0.794200	0.117362
H36	H	0.711300	0.051100	0.882900	0.115997
H37	H	0.040100	0.957800	0.817500	0.115997
H38	H	0.495800	0.956700	0.829100	0.115997
H39	H	0.286700	0.712600	0.791900	0.115997
H40	H	0.063900	0.492400	0.718600	0.119175
H41	H	0.161100	0.561500	0.693200	0.119175
H42	H	0.045800	0.497700	0.612700	0.119175
H43	H	0.834200	0.508000	0.586200	0.119175
H44	H	0.750800	0.572100	0.619100	0.119175
H45	H	0.793400	0.499000	0.669100	0.119175
H46	H	0.078700	0.686900	0.640700	0.119175
H47	H	0.973800	0.623800	0.559500	0.119175
H48	H	0.923100	0.697700	0.621500	0.119175
H49	H	0.156200	0.742700	0.095000	0.108542
H50	H	0.120900	0.642400	0.061600	0.108542
H51	H	0.873800	0.665900	0.188300	0.406908
H52	H	0.737900	0.647300	0.019300	0.396365
H53	H	0.929600	0.812500	0.014300	0.415376
H54	H	0.518700	0.739400	0.041100	0.415376
H55	H	0.105300	0.118200	0.452100	0.463519
H56	H	0.963300	0.086100	0.388100	0.463519
H57	H	0.710000	0.997900	0.397100	0.467814
H58	H	0.776700	0.933900	0.414300	0.467814
H59	H	0.642700	0.994800	0.624700	0.466641
H60	H	0.529000	0.950900	0.626100	0.466641
H61	H	0.737400	0.197300	0.553000	0.467814
H62	H	0.706200	0.179300	0.469800	0.467814
C1	C	0.406100	0.416400	0.057900	0.275143
C2	C	0.549100	0.425200	0.088000	-0.149722
C3	C	0.616100	0.496400	0.140400	-0.019221
C4	C	0.539600	0.557700	0.163000	-0.246911
C5	C	0.398000	0.548800	0.134600	-0.019221
C6	C	0.330300	0.478600	0.081300	-0.149722
C7	C	0.030000	0.319600	0.070100	0.189707
C8	C	0.982700	0.265100	0.121200	-0.054950
C9	C	0.990800	0.292600	0.203900	-0.129869
C10	C	0.039900	0.375600	0.235900	-0.002073
C11	C	0.085600	0.428700	0.183500	-0.129869
C12	C	0.084200	0.401400	0.102100	-0.054950
C13	C	0.126900	0.094900	0.045600	0.296468
C14	C	0.222500	0.037700	0.057900	-0.187332
C15	C	0.214800	0.979800	0.114600	-0.005149
C16	C	0.115800	0.981100	0.160700	-0.244086
C17	C	0.023300	0.039900	0.151400	-0.005149
C18	C	0.028300	0.096400	0.094600	-0.187332
C19	C	0.512000	0.194400	0.037600	0.296468
C20	C	0.475300	0.118600	0.066300	-0.187332
C21	C	0.532500	0.104600	0.146800	-0.009247
C22	C	0.622600	0.166700	0.199400	-0.242982
C23	C	0.654700	0.243700	0.172700	-0.009247
C24	C	0.599900	0.257400	0.091800	-0.187332
C25	C	0.920300	0.308800	0.926300	-0.079666
C26	C	0.972000	0.329300	0.851300	0.651511
C27	C	0.040700	0.410000	0.324600	0.224279
C28	C	0.929600	0.467900	0.320800	-0.380573
C29	C	0.178000	0.461800	0.366300	-0.380573
C30	C	0.012000	0.342400	0.378100	-0.380573
C31	C	0.593900	0.583600	0.942100	0.275143
C32	C	0.450900	0.574800	0.912000	-0.149722
C33	C	0.383900	0.503600	0.859600	-0.019221
C34	C	0.460400	0.442300	0.837000	-0.246911
C35	C	0.602000	0.451200	0.865400	-0.019221
C36	C	0.669700	0.521400	0.918700	-0.149722
C37	C	0.970000	0.680400	0.929900	0.189707
C38	C	0.017300	0.734900	0.878800	-0.054950
C39	C	0.009200	0.707400	0.796100	-0.129869
C40	C	0.960100	0.624400	0.764100	-0.002073
C41	C	0.914400	0.571300	0.816500	-0.129869
C42	C	0.915800	0.598600	0.897900	-0.054950
C43	C	0.873100	0.905100	0.954400	0.296468
C44	C	0.777500	0.962300	0.942100	-0.187332
C45	C	0.785200	0.020200	0.885400	-0.005149
C46	C	0.884200	0.018900	0.839300	-0.244086
C47	C	0.976700	0.960100	0.848600	-0.005149
C48	C	0.971700	0.903600	0.905400	-0.187332
C49	C	0.488000	0.805600	0.962400	0.296468
C50	C	0.524700	0.881400	0.933700	-0.187332
C51	C	0.467500	0.895400	0.853200	-0.009247
C52	C	0.377400	0.833300	0.800600	-0.242982
C53	C	0.345300	0.756300	0.827300	-0.009247
C54	C	0.400100	0.742600	0.908200	-0.187332
C55	C	0.079700	0.691200	0.073700	-0.079666
C56	C	0.028000	0.670700	0.148700	0.651511
C57	C	0.959300	0.590000	0.675400	0.224279
C58	C	0.070400	0.532100	0.679200	-0.380573
C59	C	0.822000	0.538200	0.633700	-0.380573
C60	C	0.988000	0.657600	0.621900	-0.380573
S1	S	0.150800	0.470490	0.037550	0.043827
S2	S	0.896700	0.163520	0.076650	0.052189
S3	S	0.353900	0.038060	0.000840	0.070309
S4	S	0.653100	0.352810	0.054190	0.053198
S5	S	0.109000	0.908790	0.234850	1.473375
S6	S	0.703000	0.146300	0.300270	1.354607
S7	S	0.623300	0.650320	0.226910	1.393696
S8	S	0.849200	0.529510	0.962450	0.043827
S9	S	0.103300	0.836480	0.923350	0.052189
S10	S	0.646100	0.961940	0.999160	0.070309
S11	S	0.346900	0.647190	0.945810	0.053198
S12	S	0.891000	0.091210	0.765150	1.473375
S13	S	0.297000	0.853700	0.699730	1.354607
S14	S	0.376700	0.349680	0.773090	1.393696
O1	O	0.346300	0.347600	0.006800	-0.495202
O2	O	0.031900	0.291000	0.989900	-0.206917
O3	O	0.137600	0.148000	0.988500	-0.622906
O4	O	0.461900	0.202500	0.956900	-0.622906
O5	O	0.898100	0.354200	0.793600	-0.529622
O6	O	0.101500	0.317400	0.855500	-0.499494
O7	O	0.963800	0.875600	0.221500	-0.788083
O8	O	0.160200	0.955500	0.316500	-0.801229
O9	O	0.194700	0.846300	0.216900	-0.647197
O10	O	0.625200	0.068300	0.313400	-0.654398
O11	O	0.689000	0.215700	0.356400	-0.654398
O12	O	0.844400	0.135600	0.298300	-0.654398
O13	O	0.766200	0.634700	0.257200	-0.648454
O14	O	0.550800	0.661500	0.292200	-0.648454
O15	O	0.615200	0.717000	0.174400	-0.787730
O16	O	0.975800	0.918200	0.562200	-0.997101
O17	O	0.264900	0.031700	0.564300	-1.031406
O18	O	0.430200	0.022900	0.407300	-1.090571
O19	O	0.292200	0.848000	0.479900	-1.031406
O20	O	0.653700	0.652400	0.993200	-0.495202
O21	O	0.968100	0.709000	0.010100	-0.206917
O22	O	0.862400	0.852000	0.011500	-0.622906
O23	O	0.538100	0.797500	0.043100	-0.622906
O24	O	0.101900	0.645800	0.206400	-0.529622
O25	O	0.898500	0.682600	0.144500	-0.499494
O26	O	0.036200	0.124400	0.778500	-0.788083
O27	O	0.839800	0.044500	0.683500	-0.801229
O28	O	0.805300	0.153700	0.783100	-0.647197
O29	O	0.374800	0.931700	0.686600	-0.654398
O30	O	0.311000	0.784300	0.643600	-0.654398
O31	O	0.155600	0.864400	0.701700	-0.654398
O32	O	0.233800	0.365300	0.742800	-0.648454
O33	O	0.449200	0.338500	0.707800	-0.648454
O34	O	0.384800	0.283000	0.825600	-0.787730
O35	O	0.024200	0.081800	0.437800	-0.997101
O36	O	0.735100	0.968300	0.435700	-1.031406
O37	O	0.569800	0.977100	0.592700	-1.090571
O38	O	0.707800	0.152000	0.520100	-1.031406
