data_BACMOH_clean_PM
_symmetry_space_group_name_H-M	'P1'
_cell_length_a	7.465000
_cell_length_b	9.622000
_cell_length_c	16.049000
_cell_angle_alpha	90.000000
_cell_angle_beta	90.000000
_cell_angle_gamma	90.000000
_symmetry_Int_Tables_number 1

loop_
_symmetry_equiv_pos_as_xyz
'x,y,z'

loop_
_atom_site_label
_atom_site_type_symbol
_atom_site_fract_x
_atom_site_fract_y
_atom_site_fract_z
_atom_site_charge
Cu1	Cu	0.240200	0.158300	0.665600	0.861113
Cu2	Cu	0.259800	0.658300	0.334400	0.861113
Cu3	Cu	0.740200	0.841700	0.834400	0.861113
Cu4	Cu	0.759800	0.341700	0.165600	0.861113
C1	C	0.401900	0.906600	0.712600	0.626354
C2	C	0.288900	0.862500	0.638100	0.148087
C3	C	0.396400	0.839400	0.560500	0.002575
C4	C	0.303900	0.771000	0.490000	0.651347
C5	C	0.379600	0.447400	0.690100	0.369177
C6	C	0.426000	0.459700	0.822700	0.087367
C7	C	0.374100	0.331200	0.805600	0.223379
C8	C	0.098100	0.406600	0.287400	0.626354
C9	C	0.211100	0.362500	0.361900	0.148087
C10	C	0.103600	0.339400	0.439500	0.002575
C11	C	0.196100	0.271000	0.510000	0.651347
C12	C	0.120400	0.947400	0.309900	0.369177
C13	C	0.074000	0.959700	0.177300	0.087367
C14	C	0.125900	0.831200	0.194400	0.223379
C15	C	0.901900	0.093400	0.787400	0.626354
C16	C	0.788900	0.137500	0.861900	0.148087
C17	C	0.896400	0.160600	0.939500	0.002575
C18	C	0.803900	0.229000	0.010000	0.651347
C19	C	0.879600	0.552600	0.809900	0.369177
C20	C	0.926000	0.540300	0.677300	0.087367
C21	C	0.874100	0.668800	0.694400	0.223379
C22	C	0.598100	0.593400	0.212600	0.626354
C23	C	0.711100	0.637500	0.138100	0.148087
C24	C	0.603600	0.660600	0.060500	0.002575
C25	C	0.696100	0.729000	0.990000	0.651347
C26	C	0.620400	0.052600	0.190100	0.369177
C27	C	0.574000	0.040300	0.322700	0.087367
C28	C	0.625900	0.168800	0.305600	0.223379
N1	N	0.147900	0.976000	0.626900	-0.339266
N2	N	0.342400	0.323800	0.721600	-0.285787
N3	N	0.431700	0.535700	0.751600	-0.339581
N4	N	0.352100	0.476000	0.373100	-0.339266
N5	N	0.157600	0.823800	0.278400	-0.285787
N6	N	0.068300	0.035700	0.248400	-0.339581
N7	N	0.647900	0.024000	0.873100	-0.339266
N8	N	0.842400	0.676200	0.778400	-0.285787
N9	N	0.931700	0.464300	0.748400	-0.339581
N10	N	0.852100	0.524000	0.126900	-0.339266
N11	N	0.657600	0.176200	0.221600	-0.285787
N12	N	0.568300	0.964300	0.251600	-0.339581
O1	O	0.496800	0.815700	0.741000	-0.510135
O2	O	0.401200	0.032300	0.729800	-0.510135
O3	O	0.375400	0.771900	0.418700	-0.546334
O4	O	0.163300	0.706500	0.501900	-0.438161
O5	O	0.003200	0.315700	0.259000	-0.510135
O6	O	0.098800	0.532300	0.270200	-0.510135
O7	O	0.124600	0.271900	0.581300	-0.546334
O8	O	0.336700	0.206500	0.498100	-0.438161
O9	O	0.996800	0.184300	0.759000	-0.510135
O10	O	0.901200	0.967700	0.770200	-0.510135
O11	O	0.875400	0.228100	0.081300	-0.546334
O12	O	0.663300	0.293500	0.998100	-0.438161
O13	O	0.503200	0.684300	0.241000	-0.510135
O14	O	0.598800	0.467700	0.229800	-0.510135
O15	O	0.624600	0.728100	0.918700	-0.546334
O16	O	0.836700	0.793500	0.001900	-0.438161
