data_BAEDTA01_clean_PM
_symmetry_space_group_name_H-M	'P1'
_cell_length_a	8.981300
_cell_length_b	19.712600
_cell_length_c	19.712600
_cell_angle_alpha	90.000000
_cell_angle_beta	90.000000
_cell_angle_gamma	90.000000
_symmetry_Int_Tables_number 1

loop_
_symmetry_equiv_pos_as_xyz
'x,y,z'

loop_
_atom_site_label
_atom_site_type_symbol
_atom_site_fract_x
_atom_site_fract_y
_atom_site_fract_z
_atom_site_charge
Ba1	Ba	0.772560	0.817130	0.645360	1.608717
Ba2	Ba	0.766300	0.691620	0.866470	1.472117
Ba3	Ba	0.772560	0.182870	0.354640	1.608717
Ba4	Ba	0.766300	0.308380	0.133530	1.472117
Ba5	Ba	0.772560	0.354640	0.817130	1.608717
Ba6	Ba	0.766300	0.133530	0.691620	1.472117
Ba7	Ba	0.772560	0.645360	0.182870	1.608717
Ba8	Ba	0.766300	0.866470	0.308380	1.472117
Ba9	Ba	0.272560	0.317130	0.854640	1.608717
Ba10	Ba	0.266300	0.191620	0.633530	1.472117
Ba11	Ba	0.272560	0.682870	0.145360	1.608717
Ba12	Ba	0.266300	0.808380	0.366470	1.472117
Ba13	Ba	0.272560	0.854640	0.682870	1.608717
Ba14	Ba	0.266300	0.633530	0.808380	1.472117
Ba15	Ba	0.272560	0.145360	0.317130	1.608717
Ba16	Ba	0.266300	0.366470	0.191620	1.472117
H1	H	0.667000	0.887000	0.001000	0.075317
H2	H	0.757000	0.826000	0.016000	0.075317
H3	H	0.478000	0.797000	0.027000	0.123661
H4	H	0.448000	0.742000	0.968000	0.123661
H5	H	0.445000	0.867000	0.917000	0.123661
H6	H	0.572000	0.871000	0.875000	0.123661
H7	H	0.899000	0.900000	0.966000	0.075317
H8	H	0.824000	0.890000	0.899000	0.075317
H9	H	0.102000	0.797000	0.846000	0.126276
H10	H	0.066000	0.870000	0.863000	0.126276
H11	H	0.002000	0.795000	0.017000	0.123661
H12	H	0.118000	0.823000	0.978000	0.123661
H13	H	0.667000	0.113000	0.999000	0.075317
H14	H	0.757000	0.174000	0.984000	0.075317
H15	H	0.478000	0.203000	0.973000	0.123661
H16	H	0.448000	0.258000	0.032000	0.123661
H17	H	0.445000	0.133000	0.083000	0.123661
H18	H	0.572000	0.129000	0.125000	0.123661
H19	H	0.899000	0.100000	0.034000	0.075317
H20	H	0.824000	0.110000	0.101000	0.075317
H21	H	0.102000	0.203000	0.154000	0.126276
H22	H	0.066000	0.130000	0.137000	0.126276
H23	H	0.002000	0.205000	0.983000	0.123661
H24	H	0.118000	0.177000	0.022000	0.123661
H25	H	0.667000	0.999000	0.887000	0.075317
H26	H	0.757000	0.984000	0.826000	0.075317
H27	H	0.478000	0.973000	0.797000	0.123661
H28	H	0.448000	0.032000	0.742000	0.123661
H29	H	0.445000	0.083000	0.867000	0.123661
H30	H	0.572000	0.125000	0.871000	0.123661
H31	H	0.899000	0.034000	0.900000	0.075317
H32	H	0.824000	0.101000	0.890000	0.075317
H33	H	0.102000	0.154000	0.797000	0.126276
H34	H	0.066000	0.137000	0.870000	0.126276
H35	H	0.002000	0.983000	0.795000	0.123661
H36	H	0.118000	0.022000	0.823000	0.123661
H37	H	0.667000	0.001000	0.113000	0.075317
H38	H	0.757000	0.016000	0.174000	0.075317
H39	H	0.478000	0.027000	0.203000	0.123661
H40	H	0.448000	0.968000	0.258000	0.123661
H41	H	0.445000	0.917000	0.133000	0.123661
H42	H	0.572000	0.875000	0.129000	0.123661
H43	H	0.899000	0.966000	0.100000	0.075317
H44	H	0.824000	0.899000	0.110000	0.075317
H45	H	0.102000	0.846000	0.203000	0.126276
H46	H	0.066000	0.863000	0.130000	0.126276
H47	H	0.002000	0.017000	0.205000	0.123661
H48	H	0.118000	0.978000	0.177000	0.123661
H49	H	0.167000	0.387000	0.499000	0.075317
H50	H	0.257000	0.326000	0.484000	0.075317
H51	H	0.978000	0.297000	0.473000	0.123661
H52	H	0.948000	0.242000	0.532000	0.123661
H53	H	0.945000	0.367000	0.583000	0.123661
H54	H	0.072000	0.371000	0.625000	0.123661
H55	H	0.399000	0.400000	0.534000	0.075317
H56	H	0.324000	0.390000	0.601000	0.075317
H57	H	0.602000	0.297000	0.654000	0.126276
H58	H	0.566000	0.370000	0.637000	0.126276
H59	H	0.502000	0.295000	0.483000	0.123661
H60	H	0.618000	0.323000	0.522000	0.123661
H61	H	0.167000	0.613000	0.501000	0.075317
H62	H	0.257000	0.674000	0.516000	0.075317
H63	H	0.978000	0.703000	0.527000	0.123661
H64	H	0.948000	0.758000	0.468000	0.123661
H65	H	0.945000	0.633000	0.417000	0.123661
H66	H	0.072000	0.629000	0.375000	0.123661
H67	H	0.399000	0.600000	0.466000	0.075317
H68	H	0.324000	0.610000	0.399000	0.075317
H69	H	0.602000	0.703000	0.346000	0.126276
H70	H	0.566000	0.630000	0.363000	0.126276
H71	H	0.502000	0.705000	0.517000	0.123661
H72	H	0.618000	0.677000	0.478000	0.123661
H73	H	0.167000	0.499000	0.613000	0.075317
H74	H	0.257000	0.484000	0.674000	0.075317
H75	H	0.978000	0.473000	0.703000	0.123661
H76	H	0.948000	0.532000	0.758000	0.123661
H77	H	0.945000	0.583000	0.633000	0.123661
H78	H	0.072000	0.625000	0.629000	0.123661
H79	H	0.399000	0.534000	0.600000	0.075317
H80	H	0.324000	0.601000	0.610000	0.075317
H81	H	0.602000	0.654000	0.703000	0.126276
H82	H	0.566000	0.637000	0.630000	0.126276
H83	H	0.502000	0.483000	0.705000	0.123661
H84	H	0.618000	0.522000	0.677000	0.123661
H85	H	0.167000	0.501000	0.387000	0.075317
H86	H	0.257000	0.516000	0.326000	0.075317
H87	H	0.978000	0.527000	0.297000	0.123661
H88	H	0.948000	0.468000	0.242000	0.123661
H89	H	0.945000	0.417000	0.367000	0.123661
H90	H	0.072000	0.375000	0.371000	0.123661
H91	H	0.399000	0.466000	0.400000	0.075317
H92	H	0.324000	0.399000	0.390000	0.075317
H93	H	0.602000	0.346000	0.297000	0.126276
H94	H	0.566000	0.363000	0.370000	0.126276
H95	H	0.502000	0.517000	0.295000	0.123661
H96	H	0.618000	0.478000	0.323000	0.123661
C1	C	0.713600	0.845800	0.981800	-0.040231
C2	C	0.518600	0.764300	0.993900	-0.223521
C3	C	0.604400	0.709700	0.032100	0.736033
C4	C	0.520100	0.838300	0.896700	-0.222766
C5	C	0.442900	0.794500	0.844300	0.742740
C6	C	0.846700	0.866300	0.940100	-0.040231
C7	C	0.025600	0.828500	0.858100	-0.227564
C8	C	0.933100	0.830100	0.793000	0.764107
C9	C	0.037300	0.786800	0.973600	-0.222766
C10	C	0.104500	0.715700	0.964600	0.742740
C11	C	0.713600	0.154200	0.018200	-0.040231
C12	C	0.518600	0.235700	0.006100	-0.223521
C13	C	0.604400	0.290300	0.967900	0.736033
C14	C	0.520100	0.161700	0.103300	-0.222766
C15	C	0.442900	0.205500	0.155700	0.742740
C16	C	0.846700	0.133700	0.059900	-0.040231
C17	C	0.025600	0.171500	0.141900	-0.227564
C18	C	0.933100	0.169900	0.207000	0.764107
C19	C	0.037300	0.213200	0.026400	-0.222766
C20	C	0.104500	0.284300	0.035400	0.742740
C21	C	0.713600	0.018200	0.845800	-0.040231
C22	C	0.518600	0.006100	0.764300	-0.223521
C23	C	0.604400	0.967900	0.709700	0.736033
C24	C	0.520100	0.103300	0.838300	-0.222766
C25	C	0.442900	0.155700	0.794500	0.742740
C26	C	0.846700	0.059900	0.866300	-0.040231
C27	C	0.025600	0.141900	0.828500	-0.227564
C28	C	0.933100	0.207000	0.830100	0.764107
C29	C	0.037300	0.026400	0.786800	-0.222766
C30	C	0.104500	0.035400	0.715700	0.742740
C31	C	0.713600	0.981800	0.154200	-0.040231
C32	C	0.518600	0.993900	0.235700	-0.223521
C33	C	0.604400	0.032100	0.290300	0.736033
C34	C	0.520100	0.896700	0.161700	-0.222766
C35	C	0.442900	0.844300	0.205500	0.742740
C36	C	0.846700	0.940100	0.133700	-0.040231
C37	C	0.025600	0.858100	0.171500	-0.227564
C38	C	0.933100	0.793000	0.169900	0.764107
C39	C	0.037300	0.973600	0.213200	-0.222766
C40	C	0.104500	0.964600	0.284300	0.742740
C41	C	0.213600	0.345800	0.518200	-0.040231
C42	C	0.018600	0.264300	0.506100	-0.223521
C43	C	0.104400	0.209700	0.467900	0.736033
C44	C	0.020100	0.338300	0.603300	-0.222766
C45	C	0.942900	0.294500	0.655700	0.742740
C46	C	0.346700	0.366300	0.559900	-0.040231
C47	C	0.525600	0.328500	0.641900	-0.227564
C48	C	0.433100	0.330100	0.707000	0.764107
C49	C	0.537300	0.286800	0.526400	-0.222766
C50	C	0.604500	0.215700	0.535400	0.742740
C51	C	0.213600	0.654200	0.481800	-0.040231
C52	C	0.018600	0.735700	0.493900	-0.223521
C53	C	0.104400	0.790300	0.532100	0.736033
C54	C	0.020100	0.661700	0.396700	-0.222766
C55	C	0.942900	0.705500	0.344300	0.742740
C56	C	0.346700	0.633700	0.440100	-0.040231
C57	C	0.525600	0.671500	0.358100	-0.227564
C58	C	0.433100	0.669900	0.293000	0.764107
C59	C	0.537300	0.713200	0.473600	-0.222766
C60	C	0.604500	0.784300	0.464600	0.742740
C61	C	0.213600	0.518200	0.654200	-0.040231
C62	C	0.018600	0.506100	0.735700	-0.223521
C63	C	0.104400	0.467900	0.790300	0.736033
C64	C	0.020100	0.603300	0.661700	-0.222766
C65	C	0.942900	0.655700	0.705500	0.742740
C66	C	0.346700	0.559900	0.633700	-0.040231
C67	C	0.525600	0.641900	0.671500	-0.227564
C68	C	0.433100	0.707000	0.669900	0.764107
C69	C	0.537300	0.526400	0.713200	-0.222766
C70	C	0.604500	0.535400	0.784300	0.742740
C71	C	0.213600	0.481800	0.345800	-0.040231
C72	C	0.018600	0.493900	0.264300	-0.223521
C73	C	0.104400	0.532100	0.209700	0.736033
C74	C	0.020100	0.396700	0.338300	-0.222766
C75	C	0.942900	0.344300	0.294500	0.742740
C76	C	0.346700	0.440100	0.366300	-0.040231
C77	C	0.525600	0.358100	0.328500	-0.227564
C78	C	0.433100	0.293000	0.330100	0.764107
C79	C	0.537300	0.473600	0.286800	-0.222766
C80	C	0.604500	0.464600	0.215700	0.742740
N1	N	0.610600	0.800500	0.945600	-0.207035
N2	N	0.938600	0.809200	0.918800	-0.207883
N3	N	0.610600	0.199500	0.054400	-0.207035
N4	N	0.938600	0.190800	0.081200	-0.207883
N5	N	0.610600	0.054400	0.800500	-0.207035
N6	N	0.938600	0.081200	0.809200	-0.207883
N7	N	0.610600	0.945600	0.199500	-0.207035
N8	N	0.938600	0.918800	0.190800	-0.207883
N9	N	0.110600	0.300500	0.554400	-0.207035
N10	N	0.438600	0.309200	0.581200	-0.207883
N11	N	0.110600	0.699500	0.445600	-0.207035
N12	N	0.438600	0.690800	0.418800	-0.207883
N13	N	0.110600	0.554400	0.699500	-0.207035
N14	N	0.438600	0.581200	0.690800	-0.207883
N15	N	0.110600	0.445600	0.300500	-0.207035
N16	N	0.438600	0.418800	0.309200	-0.207883
O1	O	0.714700	0.684400	0.002000	-0.664224
O2	O	0.559700	0.692200	0.088900	-0.810284
O3	O	0.476500	0.732900	0.840000	-0.779967
O4	O	0.350000	0.824300	0.807900	-0.680410
O5	O	0.800500	0.810550	0.793310	-0.780338
O6	O	0.998900	0.851800	0.741510	-0.794643
O7	O	0.188300	0.695600	0.010900	-0.680410
O8	O	0.071400	0.683700	0.911700	-0.779967
O9	O	0.714700	0.315600	0.998000	-0.664224
O10	O	0.559700	0.307800	0.911100	-0.810284
O11	O	0.476500	0.267100	0.160000	-0.779967
O12	O	0.350000	0.175700	0.192100	-0.680410
O13	O	0.800500	0.189450	0.206690	-0.780338
O14	O	0.998900	0.148200	0.258490	-0.794643
O15	O	0.188300	0.304400	0.989100	-0.680410
O16	O	0.071400	0.316300	0.088300	-0.779967
O17	O	0.714700	0.998000	0.684400	-0.664224
O18	O	0.559700	0.911100	0.692200	-0.810284
O19	O	0.476500	0.160000	0.732900	-0.779967
O20	O	0.350000	0.192100	0.824300	-0.680410
O21	O	0.800500	0.206690	0.810550	-0.780338
O22	O	0.998900	0.258490	0.851800	-0.794643
O23	O	0.188300	0.989100	0.695600	-0.680410
O24	O	0.071400	0.088300	0.683700	-0.779967
O25	O	0.714700	0.002000	0.315600	-0.664224
O26	O	0.559700	0.088900	0.307800	-0.810284
O27	O	0.476500	0.840000	0.267100	-0.779967
O28	O	0.350000	0.807900	0.175700	-0.680410
O29	O	0.800500	0.793310	0.189450	-0.780338
O30	O	0.998900	0.741510	0.148200	-0.794643
O31	O	0.188300	0.010900	0.304400	-0.680410
O32	O	0.071400	0.911700	0.316300	-0.779967
O33	O	0.214700	0.184400	0.498000	-0.664224
O34	O	0.059700	0.192200	0.411100	-0.810284
O35	O	0.976500	0.232900	0.660000	-0.779967
O36	O	0.850000	0.324300	0.692100	-0.680410
O37	O	0.300500	0.310550	0.706690	-0.780338
O38	O	0.498900	0.351800	0.758490	-0.794643
O39	O	0.688300	0.195600	0.489100	-0.680410
O40	O	0.571400	0.183700	0.588300	-0.779967
O41	O	0.214700	0.815600	0.502000	-0.664224
O42	O	0.059700	0.807800	0.588900	-0.810284
O43	O	0.976500	0.767100	0.340000	-0.779967
O44	O	0.850000	0.675700	0.307900	-0.680410
O45	O	0.300500	0.689450	0.293310	-0.780338
O46	O	0.498900	0.648200	0.241510	-0.794643
O47	O	0.688300	0.804400	0.510900	-0.680410
O48	O	0.571400	0.816300	0.411700	-0.779967
O49	O	0.214700	0.498000	0.815600	-0.664224
O50	O	0.059700	0.411100	0.807800	-0.810284
O51	O	0.976500	0.660000	0.767100	-0.779967
O52	O	0.850000	0.692100	0.675700	-0.680410
O53	O	0.300500	0.706690	0.689450	-0.780338
O54	O	0.498900	0.758490	0.648200	-0.794643
O55	O	0.688300	0.489100	0.804400	-0.680410
O56	O	0.571400	0.588300	0.816300	-0.779967
O57	O	0.214700	0.502000	0.184400	-0.664224
O58	O	0.059700	0.588900	0.192200	-0.810284
O59	O	0.976500	0.340000	0.232900	-0.779967
O60	O	0.850000	0.307900	0.324300	-0.680410
O61	O	0.300500	0.293310	0.310550	-0.780338
O62	O	0.498900	0.241510	0.351800	-0.794643
O63	O	0.688300	0.510900	0.195600	-0.680410
O64	O	0.571400	0.411700	0.183700	-0.779967
