data_BASTEW_clean_PM
_symmetry_space_group_name_H-M	'P1'
_cell_length_a	8.595500
_cell_length_b	17.822000
_cell_length_c	25.363000
_cell_angle_alpha	90.000000
_cell_angle_beta	90.000000
_cell_angle_gamma	90.000000
_symmetry_Int_Tables_number 1

loop_
_symmetry_equiv_pos_as_xyz
'x,y,z'

loop_
_atom_site_label
_atom_site_type_symbol
_atom_site_fract_x
_atom_site_fract_y
_atom_site_fract_z
_atom_site_charge
Sm1	Sm	0.663040	0.716370	0.976130	2.288171
Sm2	Sm	0.163040	0.783630	0.023870	2.288171
Sm3	Sm	0.163040	0.283630	0.476130	2.288171
Sm4	Sm	0.663040	0.216370	0.523870	2.288171
Sm5	Sm	0.836960	0.716370	0.523870	2.288171
Sm6	Sm	0.336960	0.783630	0.476130	2.288171
Sm7	Sm	0.336960	0.283630	0.023870	2.288171
Sm8	Sm	0.836960	0.216370	0.976130	2.288171
Ag1	Ag	0.961000	0.549460	0.273430	0.390204
Ag2	Ag	0.461000	0.950540	0.726570	0.390204
Ag3	Ag	0.461000	0.450540	0.773430	0.390204
Ag4	Ag	0.961000	0.049460	0.226570	0.390204
Ag5	Ag	0.539000	0.549460	0.226570	0.390204
Ag6	Ag	0.039000	0.950540	0.773430	0.390204
Ag7	Ag	0.039000	0.450540	0.726570	0.390204
Ag8	Ag	0.539000	0.049460	0.273430	0.390204
H1	H	0.466900	0.009100	0.045800	0.121219
H2	H	0.747000	0.174000	0.162500	0.104175
H3	H	0.898400	0.919300	0.139600	0.119914
H4	H	0.380900	0.503400	0.069400	0.121219
H5	H	0.055500	0.400400	0.207000	0.104175
H6	H	0.183500	0.660600	0.202800	0.119914
H7	H	0.571000	0.150900	0.096700	0.289612
H8	H	0.219000	0.391600	0.132500	0.289612
H9	H	0.966900	0.490900	0.954200	0.121219
H10	H	0.247000	0.326000	0.837500	0.104175
H11	H	0.398400	0.580700	0.860400	0.119914
H12	H	0.880900	0.996600	0.930600	0.121219
H13	H	0.555500	0.099600	0.793000	0.104175
H14	H	0.683500	0.839400	0.797200	0.119914
H15	H	0.071000	0.349100	0.903300	0.289612
H16	H	0.719000	0.108400	0.867500	0.289612
H17	H	0.966900	0.990900	0.545800	0.121219
H18	H	0.247000	0.826000	0.662500	0.104175
H19	H	0.398400	0.080700	0.639600	0.119914
H20	H	0.880900	0.496600	0.569400	0.121219
H21	H	0.555500	0.599600	0.707000	0.104175
H22	H	0.683500	0.339400	0.702800	0.119914
H23	H	0.071000	0.849100	0.596700	0.289612
H24	H	0.719000	0.608400	0.632500	0.289612
H25	H	0.466900	0.509100	0.454200	0.121219
H26	H	0.747000	0.674000	0.337500	0.104175
H27	H	0.898400	0.419300	0.360400	0.119914
H28	H	0.380900	0.003400	0.430600	0.121219
H29	H	0.055500	0.900400	0.293000	0.104175
H30	H	0.183500	0.160600	0.297200	0.119914
H31	H	0.571000	0.650900	0.403300	0.289612
H32	H	0.219000	0.891600	0.367500	0.289612
H33	H	0.033100	0.009100	0.454200	0.121219
H34	H	0.753000	0.174000	0.337500	0.104175
H35	H	0.601600	0.919300	0.360400	0.119914
H36	H	0.119100	0.503400	0.430600	0.121219
H37	H	0.444500	0.400400	0.293000	0.104175
H38	H	0.316500	0.660600	0.297200	0.119914
H39	H	0.929000	0.150900	0.403300	0.289612
H40	H	0.281000	0.391600	0.367500	0.289612
H41	H	0.533100	0.490900	0.545800	0.121219
H42	H	0.253000	0.326000	0.662500	0.104175
H43	H	0.101600	0.580700	0.639600	0.119914
H44	H	0.619100	0.996600	0.569400	0.121219
H45	H	0.944500	0.099600	0.707000	0.104175
H46	H	0.816500	0.839400	0.702800	0.119914
H47	H	0.429000	0.349100	0.596700	0.289612
H48	H	0.781000	0.108400	0.632500	0.289612
H49	H	0.533100	0.990900	0.954200	0.121219
H50	H	0.253000	0.826000	0.837500	0.104175
H51	H	0.101600	0.080700	0.860400	0.119914
H52	H	0.619100	0.496600	0.930600	0.121219
H53	H	0.944500	0.599600	0.793000	0.104175
H54	H	0.816500	0.339400	0.797200	0.119914
H55	H	0.429000	0.849100	0.903300	0.289612
H56	H	0.781000	0.608400	0.867500	0.289612
H57	H	0.033100	0.509100	0.045800	0.121219
H58	H	0.753000	0.674000	0.162500	0.104175
H59	H	0.601600	0.419300	0.139600	0.119914
H60	H	0.119100	0.003400	0.069400	0.121219
H61	H	0.444500	0.900400	0.207000	0.104175
H62	H	0.316500	0.160600	0.202800	0.119914
H63	H	0.929000	0.650900	0.096700	0.289612
H64	H	0.281000	0.891600	0.132500	0.289612
C1	C	0.509700	0.872500	0.018420	0.740274
C2	C	0.605500	0.918200	0.056670	-0.071321
C3	C	0.554500	0.991400	0.063330	-0.114963
C4	C	0.638800	0.037500	0.097240	0.110147
C5	C	0.732600	0.126900	0.147510	0.253519
C6	C	0.760600	0.009400	0.127650	0.139699
C7	C	0.813900	0.937100	0.120390	-0.133272
C8	C	0.739700	0.891400	0.084090	-0.073849
C9	C	0.806500	0.814800	0.074740	0.740274
C10	C	0.449500	0.644500	0.048220	0.731373
C11	C	0.363900	0.611600	0.094230	-0.077235
C12	C	0.339400	0.534600	0.095200	-0.117243
C13	C	0.249900	0.505900	0.136570	0.110147
C14	C	0.105900	0.440900	0.191510	0.253519
C15	C	0.188100	0.553200	0.175490	0.139699
C16	C	0.219800	0.629900	0.175760	-0.146322
C17	C	0.306100	0.659000	0.134950	-0.054578
C18	C	0.340500	0.742100	0.137300	0.672919
C19	C	0.009700	0.627500	0.981580	0.740274
C20	C	0.105500	0.581800	0.943330	-0.071321
C21	C	0.054500	0.508600	0.936670	-0.114963
C22	C	0.138800	0.462500	0.902760	0.110147
C23	C	0.232600	0.373100	0.852490	0.253519
C24	C	0.260600	0.490600	0.872350	0.139699
C25	C	0.313900	0.562900	0.879610	-0.133272
C26	C	0.239700	0.608600	0.915910	-0.073849
C27	C	0.306500	0.685200	0.925260	0.740274
C28	C	0.949500	0.855500	0.951780	0.731373
C29	C	0.863900	0.888400	0.905770	-0.077235
C30	C	0.839400	0.965400	0.904800	-0.117243
C31	C	0.749900	0.994100	0.863430	0.110147
C32	C	0.605900	0.059100	0.808490	0.253519
C33	C	0.688100	0.946800	0.824510	0.139699
C34	C	0.719800	0.870100	0.824240	-0.146322
C35	C	0.806100	0.841000	0.865050	-0.054578
C36	C	0.840500	0.757900	0.862700	0.672919
C37	C	0.009700	0.127500	0.518420	0.740274
C38	C	0.105500	0.081800	0.556670	-0.071321
C39	C	0.054500	0.008600	0.563330	-0.114963
C40	C	0.138800	0.962500	0.597240	0.110147
C41	C	0.232600	0.873100	0.647510	0.253519
C42	C	0.260600	0.990600	0.627650	0.139699
C43	C	0.313900	0.062900	0.620390	-0.133272
C44	C	0.239700	0.108600	0.584090	-0.073849
C45	C	0.306500	0.185200	0.574740	0.740274
C46	C	0.949500	0.355500	0.548220	0.731373
C47	C	0.863900	0.388400	0.594230	-0.077235
C48	C	0.839400	0.465400	0.595200	-0.117243
C49	C	0.749900	0.494100	0.636570	0.110147
C50	C	0.605900	0.559100	0.691510	0.253519
C51	C	0.688100	0.446800	0.675490	0.139699
C52	C	0.719800	0.370100	0.675760	-0.146322
C53	C	0.806100	0.341000	0.634950	-0.054578
C54	C	0.840500	0.257900	0.637300	0.672919
C55	C	0.509700	0.372500	0.481580	0.740274
C56	C	0.605500	0.418200	0.443330	-0.071321
C57	C	0.554500	0.491400	0.436670	-0.114963
C58	C	0.638800	0.537500	0.402760	0.110147
C59	C	0.732600	0.626900	0.352490	0.253519
C60	C	0.760600	0.509400	0.372350	0.139699
C61	C	0.813900	0.437100	0.379610	-0.133272
C62	C	0.739700	0.391400	0.415910	-0.073849
C63	C	0.806500	0.314800	0.425260	0.740274
C64	C	0.449500	0.144500	0.451780	0.731373
C65	C	0.363900	0.111600	0.405770	-0.077235
C66	C	0.339400	0.034600	0.404800	-0.117243
C67	C	0.249900	0.005900	0.363430	0.110147
C68	C	0.105900	0.940900	0.308490	0.253519
C69	C	0.188100	0.053200	0.324510	0.139699
C70	C	0.219800	0.129900	0.324240	-0.146322
C71	C	0.306100	0.159000	0.365050	-0.054578
C72	C	0.340500	0.242100	0.362700	0.672919
C73	C	0.990300	0.872500	0.481580	0.740274
C74	C	0.894500	0.918200	0.443330	-0.071321
C75	C	0.945500	0.991400	0.436670	-0.114963
C76	C	0.861200	0.037500	0.402760	0.110147
C77	C	0.767400	0.126900	0.352490	0.253519
C78	C	0.739400	0.009400	0.372350	0.139699
C79	C	0.686100	0.937100	0.379610	-0.133272
C80	C	0.760300	0.891400	0.415910	-0.073849
C81	C	0.693500	0.814800	0.425260	0.740274
C82	C	0.050500	0.644500	0.451780	0.731373
C83	C	0.136100	0.611600	0.405770	-0.077235
C84	C	0.160600	0.534600	0.404800	-0.117243
C85	C	0.250100	0.505900	0.363430	0.110147
C86	C	0.394100	0.440900	0.308490	0.253519
C87	C	0.311900	0.553200	0.324510	0.139699
C88	C	0.280200	0.629900	0.324240	-0.146322
C89	C	0.193900	0.659000	0.365050	-0.054578
C90	C	0.159500	0.742100	0.362700	0.672919
C91	C	0.490300	0.627500	0.518420	0.740274
C92	C	0.394500	0.581800	0.556670	-0.071321
C93	C	0.445500	0.508600	0.563330	-0.114963
C94	C	0.361200	0.462500	0.597240	0.110147
C95	C	0.267400	0.373100	0.647510	0.253519
C96	C	0.239400	0.490600	0.627650	0.139699
C97	C	0.186100	0.562900	0.620390	-0.133272
C98	C	0.260300	0.608600	0.584090	-0.073849
C99	C	0.193500	0.685200	0.574740	0.740274
C100	C	0.550500	0.855500	0.548220	0.731373
C101	C	0.636100	0.888400	0.594230	-0.077235
C102	C	0.660600	0.965400	0.595200	-0.117243
C103	C	0.750100	0.994100	0.636570	0.110147
C104	C	0.894100	0.059100	0.691510	0.253519
C105	C	0.811900	0.946800	0.675490	0.139699
C106	C	0.780200	0.870100	0.675760	-0.146322
C107	C	0.693900	0.841000	0.634950	-0.054578
C108	C	0.659500	0.757900	0.637300	0.672919
C109	C	0.490300	0.127500	0.981580	0.740274
C110	C	0.394500	0.081800	0.943330	-0.071321
C111	C	0.445500	0.008600	0.936670	-0.114963
C112	C	0.361200	0.962500	0.902760	0.110147
C113	C	0.267400	0.873100	0.852490	0.253519
C114	C	0.239400	0.990600	0.872350	0.139699
C115	C	0.186100	0.062900	0.879610	-0.133272
C116	C	0.260300	0.108600	0.915910	-0.073849
C117	C	0.193500	0.185200	0.925260	0.740274
C118	C	0.550500	0.355500	0.951780	0.731373
C119	C	0.636100	0.388400	0.905770	-0.077235
C120	C	0.660600	0.465400	0.904800	-0.117243
C121	C	0.750100	0.494100	0.863430	0.110147
C122	C	0.894100	0.559100	0.808490	0.253519
C123	C	0.811900	0.446800	0.824510	0.139699
C124	C	0.780200	0.370100	0.824240	-0.146322
C125	C	0.693900	0.341000	0.865050	-0.054578
C126	C	0.659500	0.257900	0.862700	0.672919
C127	C	0.990300	0.372500	0.018420	0.740274
C128	C	0.894500	0.418200	0.056670	-0.071321
C129	C	0.945500	0.491400	0.063330	-0.114963
C130	C	0.861200	0.537500	0.097240	0.110147
C131	C	0.767400	0.626900	0.147510	0.253519
C132	C	0.739400	0.509400	0.127650	0.139699
C133	C	0.686100	0.437100	0.120390	-0.133272
C134	C	0.760300	0.391400	0.084090	-0.073849
C135	C	0.693500	0.314800	0.074740	0.740274
C136	C	0.050500	0.144500	0.048220	0.731373
C137	C	0.136100	0.111600	0.094230	-0.077235
C138	C	0.160600	0.034600	0.095200	-0.117243
C139	C	0.250100	0.005900	0.136570	0.110147
C140	C	0.394100	0.940900	0.191510	0.253519
C141	C	0.311900	0.053200	0.175490	0.139699
C142	C	0.280200	0.129900	0.175760	-0.146322
C143	C	0.193900	0.159000	0.134950	-0.054578
C144	C	0.159500	0.242100	0.137300	0.672919
N1	N	0.626000	0.112200	0.110140	-0.212920
N2	N	0.814700	0.067000	0.160480	-0.417310
N3	N	0.096000	0.510200	0.209340	-0.417310
N4	N	0.196000	0.435100	0.148650	-0.212920
N5	N	0.126000	0.387800	0.889860	-0.212920
N6	N	0.314700	0.433000	0.839520	-0.417310
N7	N	0.596000	0.989800	0.790660	-0.417310
N8	N	0.696000	0.064900	0.851350	-0.212920
N9	N	0.126000	0.887800	0.610140	-0.212920
N10	N	0.314700	0.933000	0.660480	-0.417310
N11	N	0.596000	0.489800	0.709340	-0.417310
N12	N	0.696000	0.564900	0.648650	-0.212920
N13	N	0.626000	0.612200	0.389860	-0.212920
N14	N	0.814700	0.567000	0.339520	-0.417310
N15	N	0.096000	0.010200	0.290660	-0.417310
N16	N	0.196000	0.935100	0.351350	-0.212920
N17	N	0.874000	0.112200	0.389860	-0.212920
N18	N	0.685300	0.067000	0.339520	-0.417310
N19	N	0.404000	0.510200	0.290660	-0.417310
N20	N	0.304000	0.435100	0.351350	-0.212920
N21	N	0.374000	0.387800	0.610140	-0.212920
N22	N	0.185300	0.433000	0.660480	-0.417310
N23	N	0.904000	0.989800	0.709340	-0.417310
N24	N	0.804000	0.064900	0.648650	-0.212920
N25	N	0.374000	0.887800	0.889860	-0.212920
N26	N	0.185300	0.933000	0.839520	-0.417310
N27	N	0.904000	0.489800	0.790660	-0.417310
N28	N	0.804000	0.564900	0.851350	-0.212920
N29	N	0.874000	0.612200	0.110140	-0.212920
N30	N	0.685300	0.567000	0.160480	-0.417310
N31	N	0.404000	0.010200	0.209340	-0.417310
N32	N	0.304000	0.935100	0.148650	-0.212920
O1	O	0.575500	0.840910	0.979540	-0.728273
O2	O	0.365600	0.873580	0.025260	-0.728273
O3	O	0.720300	0.761250	0.061370	-0.728273
O4	O	0.951600	0.807850	0.081670	-0.728273
O5	O	0.559100	0.609820	0.027100	-0.670687
O6	O	0.410500	0.710020	0.031690	-0.864820
O7	O	0.246300	0.785700	0.112960	-0.754706
O8	O	0.450300	0.764400	0.163700	-0.587242
O9	O	0.075500	0.659090	0.020460	-0.728273
O10	O	0.865600	0.626420	0.974740	-0.728273
O11	O	0.220300	0.738750	0.938630	-0.728273
O12	O	0.451600	0.692150	0.918330	-0.728273
O13	O	0.059100	0.890180	0.972900	-0.670687
O14	O	0.910500	0.789980	0.968310	-0.864820
O15	O	0.746300	0.714300	0.887040	-0.754706
O16	O	0.950300	0.735600	0.836300	-0.587242
O17	O	0.075500	0.159090	0.479540	-0.728273
O18	O	0.865600	0.126420	0.525260	-0.728273
O19	O	0.220300	0.238750	0.561370	-0.728273
O20	O	0.451600	0.192150	0.581670	-0.728273
O21	O	0.059100	0.390180	0.527100	-0.670687
O22	O	0.910500	0.289980	0.531690	-0.864820
O23	O	0.746300	0.214300	0.612960	-0.754706
O24	O	0.950300	0.235600	0.663700	-0.587242
O25	O	0.575500	0.340910	0.520460	-0.728273
O26	O	0.365600	0.373580	0.474740	-0.728273
O27	O	0.720300	0.261250	0.438630	-0.728273
O28	O	0.951600	0.307850	0.418330	-0.728273
O29	O	0.559100	0.109820	0.472900	-0.670687
O30	O	0.410500	0.210020	0.468310	-0.864820
O31	O	0.246300	0.285700	0.387040	-0.754706
O32	O	0.450300	0.264400	0.336300	-0.587242
O33	O	0.924500	0.840910	0.520460	-0.728273
O34	O	0.134400	0.873580	0.474740	-0.728273
O35	O	0.779700	0.761250	0.438630	-0.728273
O36	O	0.548400	0.807850	0.418330	-0.728273
O37	O	0.940900	0.609820	0.472900	-0.670687
O38	O	0.089500	0.710020	0.468310	-0.864820
O39	O	0.253700	0.785700	0.387040	-0.754706
O40	O	0.049700	0.764400	0.336300	-0.587242
O41	O	0.424500	0.659090	0.479540	-0.728273
O42	O	0.634400	0.626420	0.525260	-0.728273
O43	O	0.279700	0.738750	0.561370	-0.728273
O44	O	0.048400	0.692150	0.581670	-0.728273
O45	O	0.440900	0.890180	0.527100	-0.670687
O46	O	0.589500	0.789980	0.531690	-0.864820
O47	O	0.753700	0.714300	0.612960	-0.754706
O48	O	0.549700	0.735600	0.663700	-0.587242
O49	O	0.424500	0.159090	0.020460	-0.728273
O50	O	0.634400	0.126420	0.974740	-0.728273
O51	O	0.279700	0.238750	0.938630	-0.728273
O52	O	0.048400	0.192150	0.918330	-0.728273
O53	O	0.440900	0.390180	0.972900	-0.670687
O54	O	0.589500	0.289980	0.968310	-0.864820
O55	O	0.753700	0.214300	0.887040	-0.754706
O56	O	0.549700	0.235600	0.836300	-0.587242
O57	O	0.924500	0.340910	0.979540	-0.728273
O58	O	0.134400	0.373580	0.025260	-0.728273
O59	O	0.779700	0.261250	0.061370	-0.728273
O60	O	0.548400	0.307850	0.081670	-0.728273
O61	O	0.940900	0.109820	0.027100	-0.670687
O62	O	0.089500	0.210020	0.031690	-0.864820
O63	O	0.253700	0.285700	0.112960	-0.754706
O64	O	0.049700	0.264400	0.163700	-0.587242
