data_BETFEN_clean_PM
_symmetry_space_group_name_H-M	'P1'
_cell_length_a	13.634700
_cell_length_b	14.314500
_cell_length_c	16.115076
_cell_angle_alpha	116.367825
_cell_angle_beta	98.632513
_cell_angle_gamma	89.999999
_symmetry_Int_Tables_number 1

loop_
_symmetry_equiv_pos_as_xyz
'x,y,z'

loop_
_atom_site_label
_atom_site_type_symbol
_atom_site_fract_x
_atom_site_fract_y
_atom_site_fract_z
_atom_site_charge
Pr1	Pr	0.043200	0.605590	0.636540	2.200626
Pr2	Pr	0.456800	0.969050	0.363460	2.200626
Pr3	Pr	0.956800	0.394410	0.363460	2.200626
Pr4	Pr	0.543200	0.030950	0.636540	2.200626
H1	H	0.920500	0.817700	0.937400	0.101677
H2	H	0.886600	0.861100	0.084600	0.104808
H3	H	0.898900	0.561500	0.033400	0.104808
H4	H	0.947600	0.522700	0.889400	0.101677
H5	H	0.882000	0.814000	0.200000	0.066799
H6	H	0.799700	0.818700	0.540400	0.103314
H7	H	0.724200	0.816100	0.287800	0.120037
H8	H	0.919800	0.620200	0.319200	0.120037
H9	H	0.579500	0.880300	0.062600	0.101677
H10	H	0.613400	0.776500	0.915400	0.104808
H11	H	0.601100	0.528100	0.966600	0.104808
H12	H	0.552400	0.633300	0.110600	0.101677
H13	H	0.618000	0.614000	0.800000	0.066799
H14	H	0.700300	0.278300	0.459600	0.103314
H15	H	0.775800	0.528300	0.712200	0.120037
H16	H	0.580200	0.301000	0.680800	0.120037
H17	H	0.079500	0.182300	0.062600	0.101677
H18	H	0.113400	0.138900	0.915400	0.104808
H19	H	0.101100	0.438500	0.966600	0.104808
H20	H	0.052400	0.477300	0.110600	0.101677
H21	H	0.118000	0.186000	0.800000	0.066799
H22	H	0.200300	0.181300	0.459600	0.103314
H23	H	0.275800	0.183900	0.712200	0.120037
H24	H	0.080200	0.379800	0.680800	0.120037
H25	H	0.420500	0.119700	0.937400	0.101677
H26	H	0.386600	0.223500	0.084600	0.104808
H27	H	0.398900	0.471900	0.033400	0.104808
H28	H	0.447600	0.366700	0.889400	0.101677
H29	H	0.382000	0.386000	0.200000	0.066799
H30	H	0.299700	0.721700	0.540400	0.103314
H31	H	0.224200	0.471700	0.287800	0.120037
H32	H	0.419800	0.699000	0.319200	0.120037
C1	C	0.978600	0.642600	0.810000	0.762911
C2	C	0.942900	0.666100	0.899800	-0.136171
C3	C	0.919200	0.766400	0.957800	-0.037134
C4	C	0.894100	0.792000	0.044000	-0.121841
C5	C	0.880200	0.713200	0.069800	-0.020082
C6	C	0.903300	0.613600	0.014200	-0.121841
C7	C	0.933700	0.590600	0.927800	-0.037134
C8	C	0.855400	0.742900	0.163400	0.185061
C9	C	0.930000	0.672300	0.502000	0.748155
C10	C	0.872000	0.714900	0.439800	-0.125015
C11	C	0.806800	0.793000	0.477600	-0.015433
C12	C	0.752700	0.832000	0.421000	-0.132831
C13	C	0.763100	0.793200	0.326800	-0.093966
C14	C	0.832800	0.719500	0.291600	0.224513
C15	C	0.881000	0.676000	0.345800	-0.103466
C16	C	0.678500	0.907500	0.457800	0.759036
C17	C	0.521400	0.832600	0.190000	0.762911
C18	C	0.557100	0.766300	0.100200	-0.136171
C19	C	0.580800	0.808600	0.042200	-0.037134
C20	C	0.605900	0.748000	0.956000	-0.121841
C21	C	0.619800	0.643400	0.930200	-0.020082
C22	C	0.596700	0.599400	0.985800	-0.121841
C23	C	0.566300	0.662800	0.072200	-0.037134
C24	C	0.644600	0.579500	0.836600	0.185061
C25	C	0.570000	0.170300	0.498000	0.748155
C26	C	0.628000	0.275100	0.560200	-0.125015
C27	C	0.693200	0.315400	0.522400	-0.015433
C28	C	0.747300	0.411000	0.579000	-0.132831
C29	C	0.736900	0.466400	0.673200	-0.093966
C30	C	0.667200	0.427900	0.708400	0.224513
C31	C	0.619000	0.330200	0.654200	-0.103466
C32	C	0.821500	0.449700	0.542200	0.759036
C33	C	0.021400	0.357400	0.190000	0.762911
C34	C	0.057100	0.333900	0.100200	-0.136171
C35	C	0.080800	0.233600	0.042200	-0.037134
C36	C	0.105900	0.208000	0.956000	-0.121841
C37	C	0.119800	0.286800	0.930200	-0.020082
C38	C	0.096700	0.386400	0.985800	-0.121841
C39	C	0.066300	0.409400	0.072200	-0.037134
C40	C	0.144600	0.257100	0.836600	0.185061
C41	C	0.070000	0.327700	0.498000	0.748155
C42	C	0.128000	0.285100	0.560200	-0.125015
C43	C	0.193200	0.207000	0.522400	-0.015433
C44	C	0.247300	0.168000	0.579000	-0.132831
C45	C	0.236900	0.206800	0.673200	-0.093966
C46	C	0.167200	0.280500	0.708400	0.224513
C47	C	0.119000	0.324000	0.654200	-0.103466
C48	C	0.321500	0.092500	0.542200	0.759036
C49	C	0.478600	0.167400	0.810000	0.762911
C50	C	0.442900	0.233700	0.899800	-0.136171
C51	C	0.419200	0.191400	0.957800	-0.037134
C52	C	0.394100	0.252000	0.044000	-0.121841
C53	C	0.380200	0.356600	0.069800	-0.020082
C54	C	0.403300	0.400600	0.014200	-0.121841
C55	C	0.433700	0.337200	0.927800	-0.037134
C56	C	0.355400	0.420500	0.163400	0.185061
C57	C	0.430000	0.829700	0.502000	0.748155
C58	C	0.372000	0.724900	0.439800	-0.125015
C59	C	0.306800	0.684600	0.477600	-0.015433
C60	C	0.252700	0.589000	0.421000	-0.132831
C61	C	0.263100	0.533600	0.326800	-0.093966
C62	C	0.332800	0.572100	0.291600	0.224513
C63	C	0.381000	0.669800	0.345800	-0.103466
C64	C	0.178500	0.550300	0.457800	0.759036
N1	N	0.850700	0.681400	0.197000	-0.397206
N2	N	0.649300	0.484400	0.803000	-0.397206
N3	N	0.149300	0.318600	0.803000	-0.397206
N4	N	0.350700	0.515600	0.197000	-0.397206
O1	O	0.005900	0.553500	0.762200	-0.717183
O2	O	0.982300	0.712900	0.786600	-0.717183
O3	O	0.961400	0.581620	0.464640	-0.841703
O4	O	0.946300	0.728200	0.588800	-0.650906
O5	O	0.669000	0.939900	0.543000	-0.717183
O6	O	0.629900	0.939000	0.402000	-0.717183
O7	O	0.494100	0.791300	0.237800	-0.717183
O8	O	0.517700	0.926300	0.213400	-0.717183
O9	O	0.538600	0.116980	0.535360	-0.841703
O10	O	0.553700	0.139400	0.411200	-0.650906
O11	O	0.831000	0.396900	0.457000	-0.717183
O12	O	0.870100	0.537000	0.598000	-0.717183
O13	O	0.994100	0.446500	0.237800	-0.717183
O14	O	0.017700	0.287100	0.213400	-0.717183
O15	O	0.038600	0.418380	0.535360	-0.841703
O16	O	0.053700	0.271800	0.411200	-0.650906
O17	O	0.331000	0.060100	0.457000	-0.717183
O18	O	0.370100	0.061000	0.598000	-0.717183
O19	O	0.505900	0.208700	0.762200	-0.717183
O20	O	0.482300	0.073700	0.786600	-0.717183
O21	O	0.461400	0.883020	0.464640	-0.841703
O22	O	0.446300	0.860600	0.588800	-0.650906
O23	O	0.169000	0.603100	0.543000	-0.717183
O24	O	0.129900	0.463000	0.402000	-0.717183
