data_BEXPAX_clean_PM
_symmetry_space_group_name_H-M	'P1'
_cell_length_a	8.524000
_cell_length_b	17.213900
_cell_length_c	17.213900
_cell_angle_alpha	120.000000
_cell_angle_beta	90.000000
_cell_angle_gamma	90.000000
_symmetry_Int_Tables_number 1

loop_
_symmetry_equiv_pos_as_xyz
'x,y,z'

loop_
_atom_site_label
_atom_site_type_symbol
_atom_site_fract_x
_atom_site_fract_y
_atom_site_fract_z
_atom_site_charge
Ni1	Ni	0.666670	0.474660	0.474660	0.893860
Ni2	Ni	0.333330	0.000000	0.525340	0.893860
Ni3	Ni	0.000000	0.525340	0.000000	0.893860
H1	H	0.337200	0.234500	0.533600	0.148853
H2	H	0.547400	0.192500	0.306500	0.120465
H3	H	0.469300	0.043900	0.236000	0.121085
H4	H	0.003870	0.299100	0.765500	0.148853
H5	H	0.214070	0.114000	0.807500	0.120465
H6	H	0.135970	0.192100	0.956100	0.121085
H7	H	0.670530	0.466400	0.700900	0.148853
H8	H	0.880730	0.693500	0.886000	0.120465
H9	H	0.802630	0.764000	0.807900	0.121085
H10	H	0.662800	0.700900	0.466400	0.148853
H11	H	0.452600	0.886000	0.693500	0.120465
H12	H	0.530700	0.807900	0.764000	0.121085
H13	H	0.996130	0.533600	0.234500	0.148853
H14	H	0.785930	0.306500	0.192500	0.120465
H15	H	0.864030	0.236000	0.043900	0.121085
H16	H	0.329470	0.765500	0.299100	0.148853
H17	H	0.119270	0.807500	0.114000	0.120465
H18	H	0.197370	0.956100	0.192100	0.121085
C1	C	0.451500	0.228160	0.427340	-0.022176
C2	C	0.363800	0.196080	0.473900	-0.153514
C3	C	0.358300	0.047920	0.341920	-0.011296
C4	C	0.490400	0.171100	0.337930	-0.051044
C5	C	0.316400	0.107070	0.431400	0.320141
C6	C	0.443500	0.081900	0.296000	-0.069782
C7	C	0.502300	0.324100	0.473580	0.662087
C8	C	0.118170	0.199180	0.771840	-0.022176
C9	C	0.030470	0.277820	0.803920	-0.153514
C10	C	0.024970	0.294000	0.952080	-0.011296
C11	C	0.157070	0.166830	0.828900	-0.051044
C12	C	0.983070	0.324330	0.892930	0.320141
C13	C	0.110170	0.214100	0.918100	-0.069782
C14	C	0.168970	0.149480	0.675900	0.662087
C15	C	0.784830	0.572660	0.800820	-0.022176
C16	C	0.697130	0.526100	0.722180	-0.153514
C17	C	0.691630	0.658080	0.706000	-0.011296
C18	C	0.823730	0.662070	0.833170	-0.051044
C19	C	0.649730	0.568600	0.675670	0.320141
C20	C	0.776830	0.704000	0.785900	-0.069782
C21	C	0.835630	0.526420	0.850520	0.662087
C22	C	0.548500	0.800820	0.572660	-0.022176
C23	C	0.636200	0.722180	0.526100	-0.153514
C24	C	0.641700	0.706000	0.658080	-0.011296
C25	C	0.509600	0.833170	0.662070	-0.051044
C26	C	0.683600	0.675670	0.568600	0.320141
C27	C	0.556500	0.785900	0.704000	-0.069782
C28	C	0.497700	0.850520	0.526420	0.662087
C29	C	0.881830	0.427340	0.228160	-0.022176
C30	C	0.969530	0.473900	0.196080	-0.153514
C31	C	0.975030	0.341920	0.047920	-0.011296
C32	C	0.842930	0.337930	0.171100	-0.051044
C33	C	0.016930	0.431400	0.107070	0.320141
C34	C	0.889830	0.296000	0.081900	-0.069782
C35	C	0.831030	0.473580	0.324100	0.662087
C36	C	0.215170	0.771840	0.199180	-0.022176
C37	C	0.302870	0.803920	0.277820	-0.153514
C38	C	0.308370	0.952080	0.294000	-0.011296
C39	C	0.176270	0.828900	0.166830	-0.051044
C40	C	0.350270	0.892930	0.324330	0.320141
C41	C	0.223170	0.918100	0.214100	-0.069782
C42	C	0.164370	0.675900	0.149480	0.662087
O1	O	0.470700	0.372350	0.557320	-0.483473
O2	O	0.229100	0.076680	0.477230	-0.481760
O3	O	0.573500	0.351160	0.428650	-0.546517
O4	O	0.137370	0.184970	0.627650	-0.483473
O5	O	0.895770	0.400550	0.923320	-0.481760
O6	O	0.240170	0.077490	0.648840	-0.546517
O7	O	0.804030	0.442680	0.815030	-0.483473
O8	O	0.562430	0.522770	0.599450	-0.481760
O9	O	0.906830	0.571350	0.922510	-0.546517
O10	O	0.529300	0.815030	0.442680	-0.483473
O11	O	0.770900	0.599450	0.522770	-0.481760
O12	O	0.426500	0.922510	0.571350	-0.546517
O13	O	0.862630	0.557320	0.372350	-0.483473
O14	O	0.104230	0.477230	0.076680	-0.481760
O15	O	0.759830	0.428650	0.351160	-0.546517
O16	O	0.195970	0.627650	0.184970	-0.483473
O17	O	0.437570	0.923320	0.400550	-0.481760
O18	O	0.093170	0.648840	0.077490	-0.546517
