data_BIBXUH_clean_PM
_symmetry_space_group_name_H-M	'P1'
_cell_length_a	17.946500
_cell_length_b	17.946500
_cell_length_c	17.946500
_cell_angle_alpha	60.000000
_cell_angle_beta	60.000000
_cell_angle_gamma	60.000001
_symmetry_Int_Tables_number 1

loop_
_symmetry_equiv_pos_as_xyz
'x,y,z'

loop_
_atom_site_label
_atom_site_type_symbol
_atom_site_fract_x
_atom_site_fract_y
_atom_site_fract_z
_atom_site_charge
Ni1	Ni	0.828730	0.057090	0.057090	0.165061
Ni2	Ni	0.057090	0.828730	0.057090	0.165061
Ni3	Ni	0.057090	0.057090	0.828730	0.165061
Ni4	Ni	0.057090	0.057090	0.057090	0.165061
Ni5	Ni	0.942910	0.171270	0.942910	0.165061
Ni6	Ni	0.171270	0.942910	0.942910	0.165061
Ni7	Ni	0.942910	0.942910	0.171270	0.165061
Ni8	Ni	0.942910	0.942910	0.942910	0.165061
H1	H	0.875640	0.124360	0.124360	0.355449
H2	H	0.124360	0.875640	0.875640	0.355449
H3	H	0.875640	0.124360	0.875640	0.355449
H4	H	0.124360	0.875640	0.124360	0.355449
H5	H	0.875640	0.875640	0.124360	0.355449
H6	H	0.124360	0.124360	0.875640	0.355449
H7	H	0.514650	0.645050	0.920150	0.111301
H8	H	0.392510	0.765390	0.921050	0.110048
H9	H	0.645050	0.514650	0.920150	0.111301
H10	H	0.765390	0.392510	0.921050	0.110048
H11	H	0.920150	0.920150	0.514650	0.111301
H12	H	0.921050	0.921050	0.392510	0.110048
H13	H	0.920150	0.920150	0.645050	0.111301
H14	H	0.921050	0.921050	0.765390	0.110048
H15	H	0.514650	0.920150	0.920150	0.111301
H16	H	0.392510	0.921050	0.921050	0.110048
H17	H	0.645050	0.920150	0.920150	0.111301
H18	H	0.765390	0.921050	0.921050	0.110048
H19	H	0.920150	0.514650	0.645050	0.111301
H20	H	0.921050	0.392510	0.765390	0.110048
H21	H	0.920150	0.645050	0.514650	0.111301
H22	H	0.921050	0.765390	0.392510	0.110048
H23	H	0.514650	0.920150	0.645050	0.111301
H24	H	0.392510	0.921050	0.765390	0.110048
H25	H	0.645050	0.920150	0.514650	0.111301
H26	H	0.765390	0.921050	0.392510	0.110048
H27	H	0.920150	0.645050	0.920150	0.111301
H28	H	0.921050	0.765390	0.921050	0.110048
H29	H	0.920150	0.514650	0.920150	0.111301
H30	H	0.921050	0.392510	0.921050	0.110048
H31	H	0.354950	0.485350	0.079850	0.111301
H32	H	0.234610	0.607490	0.078950	0.110048
H33	H	0.485350	0.354950	0.079850	0.111301
H34	H	0.607490	0.234610	0.078950	0.110048
H35	H	0.079850	0.079850	0.485350	0.111301
H36	H	0.078950	0.078950	0.607490	0.110048
H37	H	0.079850	0.079850	0.354950	0.111301
H38	H	0.078950	0.078950	0.234610	0.110048
H39	H	0.079850	0.485350	0.079850	0.111301
H40	H	0.078950	0.607490	0.078950	0.110048
H41	H	0.079850	0.354950	0.079850	0.111301
H42	H	0.078950	0.234610	0.078950	0.110048
H43	H	0.485350	0.079850	0.354950	0.111301
H44	H	0.607490	0.078950	0.234610	0.110048
H45	H	0.354950	0.079850	0.485350	0.111301
H46	H	0.234610	0.078950	0.607490	0.110048
H47	H	0.079850	0.485350	0.354950	0.111301
H48	H	0.078950	0.607490	0.234610	0.110048
H49	H	0.079850	0.354950	0.485350	0.111301
H50	H	0.078950	0.234610	0.607490	0.110048
H51	H	0.354950	0.079850	0.079850	0.111301
H52	H	0.234610	0.078950	0.078950	0.110048
H53	H	0.485350	0.079850	0.079850	0.111301
H54	H	0.607490	0.078950	0.078950	0.110048
C1	C	0.422540	0.577460	0.000000	0.093236
C2	C	0.341760	0.658240	0.000000	-0.084610
C3	C	0.577460	0.422540	0.000000	0.093236
C4	C	0.658240	0.341760	0.000000	-0.084610
C5	C	0.000000	0.000000	0.422540	0.093236
C6	C	0.000000	0.000000	0.341760	-0.084610
C7	C	0.000000	0.000000	0.577460	0.093236
C8	C	0.000000	0.000000	0.658240	-0.084610
C9	C	0.422540	0.000000	0.000000	0.093236
C10	C	0.341760	0.000000	0.000000	-0.084610
C11	C	0.577460	0.000000	0.000000	0.093236
C12	C	0.658240	0.000000	0.000000	-0.084610
C13	C	0.000000	0.422540	0.577460	0.093236
C14	C	0.000000	0.341760	0.658240	-0.084610
C15	C	0.000000	0.577460	0.422540	0.093236
C16	C	0.000000	0.658240	0.341760	-0.084610
C17	C	0.422540	0.000000	0.577460	0.093236
C18	C	0.341760	0.000000	0.658240	-0.084610
C19	C	0.577460	0.000000	0.422540	0.093236
C20	C	0.658240	0.000000	0.341760	-0.084610
C21	C	0.000000	0.577460	0.000000	0.093236
C22	C	0.000000	0.658240	0.000000	-0.084610
C23	C	0.000000	0.422540	0.000000	0.093236
C24	C	0.000000	0.341760	0.000000	-0.084610
C25	C	0.508710	0.586150	0.952570	-0.108459
C26	C	0.340550	0.746150	0.956650	0.042341
C27	C	0.586150	0.508710	0.952570	-0.108459
C28	C	0.746150	0.340550	0.956650	0.042341
C29	C	0.952570	0.952570	0.508710	-0.108459
C30	C	0.956650	0.956650	0.340550	0.042341
C31	C	0.952570	0.952570	0.586150	-0.108459
C32	C	0.956650	0.956650	0.746150	0.042341
C33	C	0.508710	0.952570	0.952570	-0.108459
C34	C	0.340550	0.956650	0.956650	0.042341
C35	C	0.586150	0.952570	0.952570	-0.108459
C36	C	0.746150	0.956650	0.956650	0.042341
C37	C	0.952570	0.508710	0.586150	-0.108459
C38	C	0.956650	0.340550	0.746150	0.042341
C39	C	0.952570	0.586150	0.508710	-0.108459
C40	C	0.956650	0.746150	0.340550	0.042341
C41	C	0.508710	0.952570	0.586150	-0.108459
C42	C	0.340550	0.956650	0.746150	0.042341
C43	C	0.586150	0.952570	0.508710	-0.108459
C44	C	0.746150	0.956650	0.340550	0.042341
C45	C	0.952570	0.586150	0.952570	-0.108459
C46	C	0.956650	0.746150	0.956650	0.042341
C47	C	0.952570	0.508710	0.952570	-0.108459
C48	C	0.956650	0.340550	0.956650	0.042341
C49	C	0.413850	0.491290	0.047430	-0.108459
C50	C	0.253850	0.659450	0.043350	0.042341
C51	C	0.491290	0.413850	0.047430	-0.108459
C52	C	0.659450	0.253850	0.043350	0.042341
C53	C	0.047430	0.047430	0.491290	-0.108459
C54	C	0.043350	0.043350	0.659450	0.042341
C55	C	0.047430	0.047430	0.413850	-0.108459
C56	C	0.043350	0.043350	0.253850	0.042341
C57	C	0.047430	0.491290	0.047430	-0.108459
C58	C	0.043350	0.659450	0.043350	0.042341
C59	C	0.047430	0.413850	0.047430	-0.108459
C60	C	0.043350	0.253850	0.043350	0.042341
C61	C	0.491290	0.047430	0.413850	-0.108459
C62	C	0.659450	0.043350	0.253850	0.042341
C63	C	0.413850	0.047430	0.491290	-0.108459
C64	C	0.253850	0.043350	0.659450	0.042341
C65	C	0.047430	0.491290	0.413850	-0.108459
C66	C	0.043350	0.659450	0.253850	0.042341
C67	C	0.047430	0.413850	0.491290	-0.108459
C68	C	0.043350	0.253850	0.659450	0.042341
C69	C	0.413850	0.047430	0.047430	-0.108459
C70	C	0.253850	0.043350	0.043350	0.042341
C71	C	0.491290	0.047430	0.047430	-0.108459
C72	C	0.659450	0.043350	0.043350	0.042341
N1	N	0.251930	0.801650	0.973210	-0.159954
N2	N	0.801650	0.251930	0.973210	-0.159954
N3	N	0.973210	0.973210	0.251930	-0.159954
N4	N	0.973210	0.973210	0.801650	-0.159954
N5	N	0.251930	0.973210	0.973210	-0.159954
N6	N	0.801650	0.973210	0.973210	-0.159954
N7	N	0.973210	0.251930	0.801650	-0.159954
N8	N	0.973210	0.801650	0.251930	-0.159954
N9	N	0.251930	0.973210	0.801650	-0.159954
N10	N	0.801650	0.973210	0.251930	-0.159954
N11	N	0.973210	0.801650	0.973210	-0.159954
N12	N	0.973210	0.251930	0.973210	-0.159954
N13	N	0.198350	0.748070	0.026790	-0.159954
N14	N	0.748070	0.198350	0.026790	-0.159954
N15	N	0.026790	0.026790	0.748070	-0.159954
N16	N	0.026790	0.026790	0.198350	-0.159954
N17	N	0.026790	0.748070	0.026790	-0.159954
N18	N	0.026790	0.198350	0.026790	-0.159954
N19	N	0.748070	0.026790	0.198350	-0.159954
N20	N	0.198350	0.026790	0.748070	-0.159954
N21	N	0.026790	0.748070	0.198350	-0.159954
N22	N	0.026790	0.198350	0.748070	-0.159954
N23	N	0.198350	0.026790	0.026790	-0.159954
N24	N	0.748070	0.026790	0.026790	-0.159954
O1	O	0.913070	0.086930	0.086930	-0.573885
O2	O	0.086930	0.913070	0.913070	-0.573885
O3	O	0.913070	0.086930	0.913070	-0.573885
O4	O	0.086930	0.913070	0.086930	-0.573885
O5	O	0.913070	0.913070	0.086930	-0.573885
O6	O	0.086930	0.086930	0.913070	-0.573885
