data_BUGSIG_clean_PM
_symmetry_space_group_name_H-M	'P1'
_cell_length_a	5.515000
_cell_length_b	13.393000
_cell_length_c	20.810500
_cell_angle_alpha	90.000000
_cell_angle_beta	95.381996
_cell_angle_gamma	90.000000
_symmetry_Int_Tables_number 1

loop_
_symmetry_equiv_pos_as_xyz
'x,y,z'

loop_
_atom_site_label
_atom_site_type_symbol
_atom_site_fract_x
_atom_site_fract_y
_atom_site_fract_z
_atom_site_charge
Gd1	Gd	0.872440	0.632550	0.527770	2.232360
Gd2	Gd	0.127560	0.132550	0.972230	2.232360
Gd3	Gd	0.127560	0.367450	0.472230	2.232360
Gd4	Gd	0.872440	0.867450	0.027770	2.232360
P1	P	0.590700	0.521210	0.414160	1.559218
P2	P	0.409300	0.021210	0.085840	1.559218
P3	P	0.409300	0.478790	0.585840	1.559218
P4	P	0.590700	0.978790	0.914160	1.559218
H1	H	0.832400	0.582200	0.336700	0.159430
H2	H	0.743500	0.474500	0.317700	0.159430
H3	H	0.621200	0.727700	0.299200	0.076132
H4	H	0.409500	0.697000	0.340900	0.076132
H5	H	0.255500	0.805100	0.255900	0.087376
H6	H	0.126500	0.700800	0.248500	0.087376
H7	H	0.518400	0.760000	0.175000	0.107234
H8	H	0.247300	0.573900	0.167900	0.087376
H9	H	0.451300	0.598500	0.122400	0.087376
H10	H	0.625300	0.496900	0.209500	0.076132
H11	H	0.750000	0.602600	0.214900	0.076132
H12	H	0.167600	0.082200	0.163300	0.159430
H13	H	0.256500	0.974500	0.182300	0.159430
H14	H	0.378800	0.227700	0.200800	0.076132
H15	H	0.590500	0.197000	0.159100	0.076132
H16	H	0.744500	0.305100	0.244100	0.087376
H17	H	0.873500	0.200800	0.251500	0.087376
H18	H	0.481600	0.260000	0.325000	0.107234
H19	H	0.752700	0.073900	0.332100	0.087376
H20	H	0.548700	0.098500	0.377600	0.087376
H21	H	0.374700	0.996900	0.290500	0.076132
H22	H	0.250000	0.102600	0.285100	0.076132
H23	H	0.167600	0.417800	0.663300	0.159430
H24	H	0.256500	0.525500	0.682300	0.159430
H25	H	0.378800	0.272300	0.700800	0.076132
H26	H	0.590500	0.303000	0.659100	0.076132
H27	H	0.744500	0.194900	0.744100	0.087376
H28	H	0.873500	0.299200	0.751500	0.087376
H29	H	0.481600	0.240000	0.825000	0.107234
H30	H	0.752700	0.426100	0.832100	0.087376
H31	H	0.548700	0.401500	0.877600	0.087376
H32	H	0.374700	0.503100	0.790500	0.076132
H33	H	0.250000	0.397400	0.785100	0.076132
H34	H	0.832400	0.917800	0.836700	0.159430
H35	H	0.743500	0.025500	0.817700	0.159430
H36	H	0.621200	0.772300	0.799200	0.076132
H37	H	0.409500	0.803000	0.840900	0.076132
H38	H	0.255500	0.694900	0.755900	0.087376
H39	H	0.126500	0.799200	0.748500	0.087376
H40	H	0.518400	0.740000	0.675000	0.107234
H41	H	0.247300	0.926100	0.667900	0.087376
H42	H	0.451300	0.901500	0.622400	0.087376
H43	H	0.625300	0.003100	0.709500	0.076132
H44	H	0.750000	0.897400	0.714900	0.076132
C1	C	0.691100	0.538800	0.332900	-0.461682
C2	C	0.468900	0.691300	0.298700	0.004010
C3	C	0.280700	0.735100	0.246700	-0.156186
C4	C	0.364000	0.724700	0.177600	-0.174913
C5	C	0.400000	0.608900	0.165200	-0.156186
C6	C	0.597600	0.567200	0.217200	0.004010
C7	C	0.171300	0.763900	0.125000	0.805769
C8	C	0.308900	0.038800	0.167100	-0.461682
C9	C	0.531100	0.191300	0.201300	0.004010
C10	C	0.719300	0.235100	0.253300	-0.156186
C11	C	0.636000	0.224700	0.322400	-0.174913
C12	C	0.600000	0.108900	0.334800	-0.156186
C13	C	0.402400	0.067200	0.282800	0.004010
C14	C	0.828700	0.263900	0.375000	0.805769
C15	C	0.308900	0.461200	0.667100	-0.461682
C16	C	0.531100	0.308700	0.701300	0.004010
C17	C	0.719300	0.264900	0.753300	-0.156186
C18	C	0.636000	0.275300	0.822400	-0.174913
C19	C	0.600000	0.391100	0.834800	-0.156186
C20	C	0.402400	0.432800	0.782800	0.004010
C21	C	0.828700	0.236100	0.875000	0.805769
C22	C	0.691100	0.961200	0.832900	-0.461682
C23	C	0.468900	0.808700	0.798700	0.004010
C24	C	0.280700	0.764900	0.746700	-0.156186
C25	C	0.364000	0.775300	0.677600	-0.174913
C26	C	0.400000	0.891100	0.665200	-0.156186
C27	C	0.597600	0.932800	0.717200	0.004010
C28	C	0.171300	0.736100	0.625000	0.805769
N1	N	0.508800	0.581300	0.282500	-0.176543
N2	N	0.491200	0.081300	0.217500	-0.176543
N3	N	0.491200	0.418700	0.717500	-0.176543
N4	N	0.508800	0.918700	0.782500	-0.176543
O1	O	0.540700	0.622700	0.444400	-0.948977
O2	O	0.821400	0.480800	0.454800	-1.102344
O3	O	0.374600	0.450300	0.408780	-0.948977
O4	O	0.001900	0.819100	0.140800	-0.779844
O5	O	0.198900	0.748900	0.067700	-0.779844
O6	O	0.459300	0.122700	0.055600	-0.948977
O7	O	0.178600	0.980800	0.045200	-1.102344
O8	O	0.625400	0.950300	0.091220	-0.948977
O9	O	0.998100	0.319100	0.359200	-0.779844
O10	O	0.801100	0.248900	0.432300	-0.779844
O11	O	0.459300	0.377300	0.555600	-0.948977
O12	O	0.178600	0.519200	0.545200	-1.102344
O13	O	0.625400	0.549700	0.591220	-0.948977
O14	O	0.998100	0.180900	0.859200	-0.779844
O15	O	0.801100	0.251100	0.932300	-0.779844
O16	O	0.540700	0.877300	0.944400	-0.948977
O17	O	0.821400	0.019200	0.954800	-1.102344
O18	O	0.374600	0.049700	0.908780	-0.948977
O19	O	0.001900	0.680900	0.640800	-0.779844
O20	O	0.198900	0.751100	0.567700	-0.779844
