data_CAHNEF_clean_PM
_symmetry_space_group_name_H-M	'P1'
_cell_length_a	10.188300
_cell_length_b	12.015800
_cell_length_c	19.205900
_cell_angle_alpha	92.789998
_cell_angle_beta	90.000000
_cell_angle_gamma	90.000000
_symmetry_Int_Tables_number 1

loop_
_symmetry_equiv_pos_as_xyz
'x,y,z'

loop_
_atom_site_label
_atom_site_type_symbol
_atom_site_fract_x
_atom_site_fract_y
_atom_site_fract_z
_atom_site_charge
Ag1	Ag	0.578950	0.244340	0.602210	0.358655
Ag2	Ag	0.296130	0.487600	0.863680	0.333619
Ag3	Ag	0.424320	0.730430	0.590490	0.333619
Ag4	Ag	0.078950	0.255660	0.897790	0.358655
Ag5	Ag	0.796130	0.012400	0.636320	0.333619
Ag6	Ag	0.924320	0.769570	0.909510	0.333619
Ag7	Ag	0.421050	0.755660	0.397790	0.358655
Ag8	Ag	0.703870	0.512400	0.136320	0.333619
Ag9	Ag	0.575680	0.269570	0.409510	0.333619
Ag10	Ag	0.921050	0.744340	0.102210	0.358655
Ag11	Ag	0.203870	0.987600	0.363680	0.333619
Ag12	Ag	0.075680	0.230430	0.090490	0.333619
P1	P	0.325810	0.151020	0.495670	1.528400
P2	P	0.464600	0.004290	0.681540	1.528400
P3	P	0.825810	0.348980	0.004330	1.528400
P4	P	0.964600	0.495710	0.818460	1.528400
P5	P	0.674190	0.848980	0.504330	1.528400
P6	P	0.535400	0.995710	0.318460	1.528400
P7	P	0.174190	0.651020	0.995670	1.528400
P8	P	0.035400	0.504290	0.181540	1.528400
H1	H	0.732700	0.468800	0.557200	0.122461
H2	H	0.813600	0.543600	0.613500	0.122461
H3	H	0.712700	0.601100	0.562500	0.122461
H4	H	0.481400	0.279100	0.827500	0.122461
H5	H	0.635700	0.297200	0.817700	0.122461
H6	H	0.555600	0.220500	0.762100	0.122461
H7	H	0.567500	0.738200	0.831800	0.122494
H8	H	0.413300	0.719800	0.842300	0.122494
H9	H	0.464800	0.794200	0.781100	0.122494
H10	H	0.143500	0.464000	0.655200	0.122494
H11	H	0.219400	0.407700	0.589600	0.122494
H12	H	0.196600	0.539700	0.594900	0.122494
H13	H	0.232700	0.031200	0.942800	0.122461
H14	H	0.313600	0.956400	0.886500	0.122461
H15	H	0.212700	0.898900	0.937500	0.122461
H16	H	0.981400	0.220900	0.672500	0.122461
H17	H	0.135700	0.202800	0.682300	0.122461
H18	H	0.055600	0.279500	0.737900	0.122461
H19	H	0.067500	0.761800	0.668200	0.122494
H20	H	0.913300	0.780200	0.657700	0.122494
H21	H	0.964800	0.705800	0.718900	0.122494
H22	H	0.643500	0.036000	0.844800	0.122494
H23	H	0.719400	0.092300	0.910400	0.122494
H24	H	0.696600	0.960300	0.905100	0.122494
H25	H	0.267300	0.531200	0.442800	0.122461
H26	H	0.186400	0.456400	0.386500	0.122461
H27	H	0.287300	0.398900	0.437500	0.122461
H28	H	0.518600	0.720900	0.172500	0.122461
H29	H	0.364300	0.702800	0.182300	0.122461
H30	H	0.444400	0.779500	0.237900	0.122461
H31	H	0.432500	0.261800	0.168200	0.122494
H32	H	0.586700	0.280200	0.157700	0.122494
H33	H	0.535200	0.205800	0.218900	0.122494
H34	H	0.856500	0.536000	0.344800	0.122494
H35	H	0.780600	0.592300	0.410400	0.122494
H36	H	0.803400	0.460300	0.405100	0.122494
H37	H	0.767300	0.968800	0.057200	0.122461
H38	H	0.686400	0.043600	0.113500	0.122461
H39	H	0.787300	0.101100	0.062500	0.122461
H40	H	0.018600	0.779100	0.327500	0.122461
H41	H	0.864300	0.797200	0.317700	0.122461
H42	H	0.944400	0.720500	0.262100	0.122461
H43	H	0.932500	0.238200	0.331800	0.122494
H44	H	0.086700	0.219800	0.342300	0.122494
H45	H	0.035200	0.294200	0.281100	0.122494
H46	H	0.356500	0.964000	0.155200	0.122494
H47	H	0.280600	0.907700	0.089600	0.122494
H48	H	0.303400	0.039700	0.094900	0.122494
C1	C	0.729500	0.535000	0.589100	-0.296970
C2	C	0.619500	0.521800	0.642300	0.239952
C3	C	0.551700	0.287300	0.793300	-0.296970
C4	C	0.524100	0.389300	0.750700	0.239952
C5	C	0.483000	0.728600	0.807800	-0.302951
C6	C	0.488400	0.624500	0.758300	0.263421
C7	C	0.214300	0.473700	0.621500	-0.302951
C8	C	0.344700	0.488900	0.660300	0.263421
C9	C	0.229500	0.965000	0.910900	-0.296970
C10	C	0.119500	0.978200	0.857700	0.239952
C11	C	0.051700	0.212700	0.706700	-0.296970
C12	C	0.024100	0.110700	0.749300	0.239952
C13	C	0.983000	0.771400	0.692200	-0.302951
C14	C	0.988400	0.875500	0.741700	0.263421
C15	C	0.714300	0.026300	0.878500	-0.302951
C16	C	0.844700	0.011100	0.839700	0.263421
C17	C	0.270500	0.465000	0.410900	-0.296970
C18	C	0.380500	0.478200	0.357700	0.239952
C19	C	0.448300	0.712700	0.206700	-0.296970
C20	C	0.475900	0.610700	0.249300	0.239952
C21	C	0.517000	0.271400	0.192200	-0.302951
C22	C	0.511600	0.375500	0.241700	0.263421
C23	C	0.785700	0.526300	0.378500	-0.302951
C24	C	0.655300	0.511100	0.339700	0.263421
C25	C	0.770500	0.035000	0.089100	-0.296970
C26	C	0.880500	0.021800	0.142300	0.239952
C27	C	0.948300	0.787300	0.293300	-0.296970
C28	C	0.975900	0.889300	0.250700	0.239952
C29	C	0.017000	0.228600	0.307800	-0.302951
C30	C	0.011600	0.124500	0.258300	0.263421
C31	C	0.285700	0.973700	0.121500	-0.302951
C32	C	0.155300	0.988900	0.160300	0.263421
S1	S	0.621840	0.647790	0.698380	-0.111618
S2	S	0.467970	0.506100	0.592510	-0.074030
S3	S	0.327970	0.613820	0.716890	-0.120554
S4	S	0.659440	0.397710	0.688860	-0.073949
S5	S	0.522480	0.508530	0.813290	-0.074030
S6	S	0.368640	0.363730	0.707660	-0.111618
S7	S	0.121840	0.852210	0.801620	-0.111618
S8	S	0.967970	0.993900	0.907490	-0.074030
S9	S	0.827970	0.886180	0.783110	-0.120554
S10	S	0.159440	0.102290	0.811140	-0.073949
S11	S	0.022480	0.991470	0.686710	-0.074030
S12	S	0.868640	0.136270	0.792340	-0.111618
S13	S	0.378160	0.352210	0.301620	-0.111618
S14	S	0.532030	0.493900	0.407490	-0.074030
S15	S	0.672030	0.386180	0.283110	-0.120554
S16	S	0.340560	0.602290	0.311140	-0.073949
S17	S	0.477520	0.491470	0.186710	-0.074030
S18	S	0.631360	0.636270	0.292340	-0.111618
S19	S	0.878160	0.147790	0.198380	-0.111618
S20	S	0.032030	0.006100	0.092510	-0.074030
S21	S	0.172030	0.113820	0.216890	-0.120554
S22	S	0.840560	0.897710	0.188860	-0.073949
S23	S	0.977520	0.008530	0.313290	-0.074030
S24	S	0.131360	0.863730	0.207660	-0.111618
O1	O	0.444500	0.219400	0.508140	-0.653745
O2	O	0.258000	0.151100	0.428380	-0.688716
O3	O	0.440800	0.889200	0.660200	-0.688716
O4	O	0.577700	0.068200	0.657440	-0.653745
O5	O	0.944500	0.280600	0.991860	-0.653745
O6	O	0.758000	0.348900	0.071620	-0.688716
O7	O	0.940800	0.610800	0.839800	-0.688716
O8	O	0.077700	0.431800	0.842560	-0.653745
O9	O	0.555500	0.780600	0.491860	-0.653745
O10	O	0.742000	0.848900	0.571620	-0.688716
O11	O	0.559200	0.110800	0.339800	-0.688716
O12	O	0.422300	0.931800	0.342560	-0.653745
O13	O	0.055500	0.719400	0.008140	-0.653745
O14	O	0.242000	0.651100	0.928380	-0.688716
O15	O	0.059200	0.389200	0.160200	-0.688716
O16	O	0.922300	0.568200	0.157440	-0.653745
F1	F	0.355100	0.031200	0.515310	-0.527152
F2	F	0.227500	0.182500	0.554460	-0.527152
F3	F	0.464900	0.013900	0.762530	-0.527152
F4	F	0.341500	0.074900	0.669860	-0.527152
F5	F	0.855100	0.468800	0.984690	-0.527152
F6	F	0.727500	0.317500	0.945540	-0.527152
F7	F	0.964900	0.486100	0.737470	-0.527152
F8	F	0.841500	0.425100	0.830140	-0.527152
F9	F	0.644900	0.968800	0.484690	-0.527152
F10	F	0.772500	0.817500	0.445540	-0.527152
F11	F	0.535100	0.986100	0.237470	-0.527152
F12	F	0.658500	0.925100	0.330140	-0.527152
F13	F	0.144900	0.531200	0.015310	-0.527152
F14	F	0.272500	0.682500	0.054460	-0.527152
F15	F	0.035100	0.513900	0.262530	-0.527152
F16	F	0.158500	0.574900	0.169860	-0.527152
