data_CAKXOD_clean_PM
_symmetry_space_group_name_H-M	'P1'
_cell_length_a	7.955000
_cell_length_b	9.693000
_cell_length_c	15.869000
_cell_angle_alpha	90.000000
_cell_angle_beta	90.000000
_cell_angle_gamma	96.356002
_symmetry_Int_Tables_number 1

loop_
_symmetry_equiv_pos_as_xyz
'x,y,z'

loop_
_atom_site_label
_atom_site_type_symbol
_atom_site_fract_x
_atom_site_fract_y
_atom_site_fract_z
_atom_site_charge
Gd1	Gd	0.921450	0.133890	0.326920	2.132980
Gd2	Gd	0.578550	0.366110	0.826920	2.132980
Gd3	Gd	0.078550	0.866110	0.673080	2.132980
Gd4	Gd	0.421450	0.633890	0.173080	2.132980
H1	H	0.968600	0.684960	0.387910	0.143446
H2	H	0.617370	0.347070	0.251470	0.057486
H3	H	0.531400	0.815040	0.887910	0.143446
H4	H	0.882630	0.152930	0.751470	0.057486
H5	H	0.031400	0.315040	0.612090	0.143446
H6	H	0.382630	0.652930	0.748530	0.057486
H7	H	0.468600	0.184960	0.112090	0.143446
H8	H	0.117370	0.847070	0.248530	0.057486
C1	C	0.913900	0.474500	0.368170	0.202362
C2	C	0.743800	0.795800	0.284000	0.703060
C3	C	0.896100	0.615200	0.358870	-0.133093
C4	C	0.769600	0.647800	0.306040	0.196890
C5	C	0.057000	0.423600	0.418520	0.624963
C6	C	0.690200	0.418700	0.279900	0.452649
C7	C	0.909900	0.009300	0.515490	0.570797
C8	C	0.586100	0.025500	0.868170	0.202362
C9	C	0.756200	0.704200	0.784000	0.703060
C10	C	0.603900	0.884800	0.858870	-0.133093
C11	C	0.730400	0.852200	0.806040	0.196890
C12	C	0.443000	0.076400	0.918520	0.624963
C13	C	0.809800	0.081300	0.779900	0.452649
C14	C	0.590100	0.490700	0.015490	0.570797
C15	C	0.086100	0.525500	0.631830	0.202362
C16	C	0.256200	0.204200	0.716000	0.703060
C17	C	0.103900	0.384800	0.641130	-0.133093
C18	C	0.230400	0.352200	0.693960	0.196890
C19	C	0.943000	0.576400	0.581480	0.624963
C20	C	0.309800	0.581300	0.720100	0.452649
C21	C	0.090100	0.990700	0.484510	0.570797
C22	C	0.413900	0.974500	0.131830	0.202362
C23	C	0.243800	0.295800	0.216000	0.703060
C24	C	0.396100	0.115200	0.141130	-0.133093
C25	C	0.269600	0.147800	0.193960	0.196890
C26	C	0.557000	0.923600	0.081480	0.624963
C27	C	0.190200	0.918700	0.220100	0.452649
C28	C	0.409900	0.509300	0.984510	0.570797
N1	N	0.811600	0.377000	0.328500	-0.546326
N2	N	0.663900	0.550000	0.266900	-0.541984
N3	N	0.688400	0.123000	0.828500	-0.546326
N4	N	0.836100	0.950000	0.766900	-0.541984
N5	N	0.188400	0.623000	0.671500	-0.546326
N6	N	0.336100	0.450000	0.733100	-0.541984
N7	N	0.311600	0.877000	0.171500	-0.546326
N8	N	0.163900	0.050000	0.233100	-0.541984
O1	O	0.048300	0.294200	0.429280	-0.713594
O2	O	0.850900	0.889500	0.310830	-0.678798
O3	O	0.812000	0.056500	0.464170	-0.632892
O4	O	0.619200	0.813000	0.239000	-0.678798
O5	O	0.874900	0.976400	0.590180	-0.632892
O6	O	0.171900	0.511600	0.442860	-0.526256
O7	O	0.451700	0.205800	0.929280	-0.713594
O8	O	0.649100	0.610500	0.810830	-0.678798
O9	O	0.688000	0.443500	0.964170	-0.632892
O10	O	0.880800	0.687000	0.739000	-0.678798
O11	O	0.625100	0.523600	0.090180	-0.632892
O12	O	0.328100	0.988400	0.942860	-0.526256
O13	O	0.951700	0.705800	0.570720	-0.713594
O14	O	0.149100	0.110500	0.689170	-0.678798
O15	O	0.188000	0.943500	0.535830	-0.632892
O16	O	0.380800	0.187000	0.761000	-0.678798
O17	O	0.125100	0.023600	0.409820	-0.632892
O18	O	0.828100	0.488400	0.557140	-0.526256
O19	O	0.548300	0.794200	0.070720	-0.713594
O20	O	0.350900	0.389500	0.189170	-0.678798
O21	O	0.312000	0.556500	0.035830	-0.632892
O22	O	0.119200	0.313000	0.261000	-0.678798
O23	O	0.374900	0.476400	0.909820	-0.632892
O24	O	0.671900	0.011600	0.057140	-0.526256
