data_CAKYIY_clean_PM
_symmetry_space_group_name_H-M	'P1'
_cell_length_a	7.923000
_cell_length_b	9.592600
_cell_length_c	15.793800
_cell_angle_alpha	90.000000
_cell_angle_beta	90.000000
_cell_angle_gamma	96.759003
_symmetry_Int_Tables_number 1

loop_
_symmetry_equiv_pos_as_xyz
'x,y,z'

loop_
_atom_site_label
_atom_site_type_symbol
_atom_site_fract_x
_atom_site_fract_y
_atom_site_fract_z
_atom_site_charge
Er1	Er	0.928170	0.132780	0.327400	1.414902
Er2	Er	0.571830	0.367220	0.827400	1.414902
Er3	Er	0.071830	0.867220	0.672600	1.414902
Er4	Er	0.428170	0.632780	0.172600	1.414902
H1	H	0.968600	0.684960	0.387910	0.151266
H2	H	0.617370	0.347070	0.251470	0.077188
H3	H	0.531400	0.815040	0.887910	0.151266
H4	H	0.882630	0.152930	0.751470	0.077188
H5	H	0.031400	0.315040	0.612090	0.151266
H6	H	0.382630	0.652930	0.748530	0.077188
H7	H	0.468600	0.184960	0.112090	0.151266
H8	H	0.117370	0.847070	0.248530	0.077188
C1	C	0.918700	0.472600	0.367800	0.166519
C2	C	0.749400	0.796300	0.282600	0.633698
C3	C	0.899900	0.614200	0.359100	-0.091985
C4	C	0.774400	0.646900	0.304900	0.161342
C5	C	0.060100	0.422000	0.419300	0.597686
C6	C	0.697000	0.415000	0.277400	0.386881
C7	C	0.908800	0.009900	0.514900	0.515515
C8	C	0.581300	0.027400	0.867800	0.166519
C9	C	0.750600	0.703700	0.782600	0.633698
C10	C	0.600100	0.885800	0.859100	-0.091985
C11	C	0.725600	0.853100	0.804900	0.161342
C12	C	0.439900	0.078000	0.919300	0.597686
C13	C	0.803000	0.085000	0.777400	0.386881
C14	C	0.591200	0.490100	0.014900	0.515515
C15	C	0.081300	0.527400	0.632200	0.166519
C16	C	0.250600	0.203700	0.717400	0.633698
C17	C	0.100100	0.385800	0.640900	-0.091985
C18	C	0.225600	0.353100	0.695100	0.161342
C19	C	0.939900	0.578000	0.580700	0.597686
C20	C	0.303000	0.585000	0.722600	0.386881
C21	C	0.091200	0.990100	0.485100	0.515515
C22	C	0.418700	0.972600	0.132200	0.166519
C23	C	0.249400	0.296300	0.217400	0.633698
C24	C	0.399900	0.114200	0.140900	-0.091985
C25	C	0.274400	0.146900	0.195100	0.161342
C26	C	0.560100	0.922000	0.080700	0.597686
C27	C	0.197000	0.915000	0.222600	0.386881
C28	C	0.408800	0.509900	0.985100	0.515515
N1	N	0.817300	0.373600	0.326700	-0.417253
N2	N	0.669600	0.547900	0.264500	-0.416103
N3	N	0.682700	0.126400	0.826700	-0.417253
N4	N	0.830400	0.952100	0.764500	-0.416103
N5	N	0.182700	0.626400	0.673300	-0.417253
N6	N	0.330400	0.452100	0.735500	-0.416103
N7	N	0.317300	0.873600	0.173300	-0.417253
N8	N	0.169600	0.047900	0.235500	-0.416103
O1	O	0.052700	0.290100	0.429500	-0.575618
O2	O	0.855100	0.891200	0.310400	-0.562247
O3	O	0.813300	0.056500	0.462300	-0.511210
O4	O	0.624200	0.812800	0.236700	-0.562247
O5	O	0.872200	0.977600	0.590100	-0.511210
O6	O	0.175300	0.510800	0.444500	-0.457122
O7	O	0.447300	0.209900	0.929500	-0.575618
O8	O	0.644900	0.608800	0.810400	-0.562247
O9	O	0.686700	0.443500	0.962300	-0.511210
O10	O	0.875800	0.687200	0.736700	-0.562247
O11	O	0.627800	0.522400	0.090100	-0.511210
O12	O	0.324700	0.989200	0.944500	-0.457122
O13	O	0.947300	0.709900	0.570500	-0.575618
O14	O	0.144900	0.108800	0.689600	-0.562247
O15	O	0.186700	0.943500	0.537700	-0.511210
O16	O	0.375800	0.187200	0.763300	-0.562247
O17	O	0.127800	0.022400	0.409900	-0.511210
O18	O	0.824700	0.489200	0.555500	-0.457122
O19	O	0.552700	0.790100	0.070500	-0.575618
O20	O	0.355100	0.391200	0.189600	-0.562247
O21	O	0.313300	0.556500	0.037700	-0.511210
O22	O	0.124200	0.312800	0.263300	-0.562247
O23	O	0.372200	0.477600	0.909900	-0.511210
O24	O	0.675300	0.010800	0.055500	-0.457122
