data_CAWVIH_clean_PM
_symmetry_space_group_name_H-M	'P1'
_cell_length_a	11.988700
_cell_length_b	17.980700
_cell_length_c	18.636500
_cell_angle_alpha	90.000000
_cell_angle_beta	90.000000
_cell_angle_gamma	90.000000
_symmetry_Int_Tables_number 1

loop_
_symmetry_equiv_pos_as_xyz
'x,y,z'

loop_
_atom_site_label
_atom_site_type_symbol
_atom_site_fract_x
_atom_site_fract_y
_atom_site_fract_z
_atom_site_charge
Zn1	Zn	0.610390	0.802420	0.991030	1.068658
Zn2	Zn	0.889610	0.802420	0.008970	1.068658
Zn3	Zn	0.389610	0.697580	0.991030	1.068658
Zn4	Zn	0.110390	0.697580	0.008970	1.068658
Zn5	Zn	0.389610	0.197580	0.008970	1.068658
Zn6	Zn	0.110390	0.197580	0.991030	1.068658
Zn7	Zn	0.610390	0.302420	0.008970	1.068658
Zn8	Zn	0.889610	0.302420	0.991030	1.068658
H1	H	0.126000	0.256700	0.207300	0.123180
H2	H	0.449500	0.989700	0.077400	0.099401
H3	H	0.116600	0.170400	0.764600	0.099401
H4	H	0.350900	0.079700	0.138400	0.104470
H5	H	0.113900	0.169300	0.641500	0.104470
H6	H	0.145300	0.196200	0.409900	0.123180
H7	H	0.103500	0.934900	0.173600	0.104470
H8	H	0.204200	0.844800	0.115300	0.099401
H9	H	0.209700	0.163000	0.143100	0.102007
H10	H	0.141900	0.194500	0.532400	0.102007
H11	H	0.991400	0.106400	0.339100	0.123180
H12	H	0.074500	0.011500	0.273800	0.102007
H13	H	0.374000	0.256700	0.792700	0.123180
H14	H	0.050500	0.989700	0.922600	0.099401
H15	H	0.383400	0.170400	0.235400	0.099401
H16	H	0.149100	0.079700	0.861600	0.104470
H17	H	0.386100	0.169300	0.358500	0.104470
H18	H	0.354700	0.196200	0.590100	0.123180
H19	H	0.396500	0.934900	0.826400	0.104470
H20	H	0.295800	0.844800	0.884700	0.099401
H21	H	0.290300	0.163000	0.856900	0.102007
H22	H	0.358100	0.194500	0.467600	0.102007
H23	H	0.508600	0.106400	0.660900	0.123180
H24	H	0.425500	0.011500	0.726200	0.102007
H25	H	0.874000	0.243300	0.207300	0.123180
H26	H	0.550500	0.510300	0.077400	0.099401
H27	H	0.883400	0.329600	0.764600	0.099401
H28	H	0.649100	0.420300	0.138400	0.104470
H29	H	0.886100	0.330700	0.641500	0.104470
H30	H	0.854700	0.303800	0.409900	0.123180
H31	H	0.896500	0.565100	0.173600	0.104470
H32	H	0.795800	0.655200	0.115300	0.099401
H33	H	0.790300	0.337000	0.143100	0.102007
H34	H	0.858100	0.305500	0.532400	0.102007
H35	H	0.008600	0.393600	0.339100	0.123180
H36	H	0.925500	0.488500	0.273800	0.102007
H37	H	0.626000	0.243300	0.792700	0.123180
H38	H	0.949500	0.510300	0.922600	0.099401
H39	H	0.616600	0.329600	0.235400	0.099401
H40	H	0.850900	0.420300	0.861600	0.104470
H41	H	0.613900	0.330700	0.358500	0.104470
H42	H	0.645300	0.303800	0.590100	0.123180
H43	H	0.603500	0.565100	0.826400	0.104470
H44	H	0.704200	0.655200	0.884700	0.099401
H45	H	0.709700	0.337000	0.856900	0.102007
H46	H	0.641900	0.305500	0.467600	0.102007
H47	H	0.491400	0.393600	0.660900	0.123180
H48	H	0.574500	0.488500	0.726200	0.102007
H49	H	0.874000	0.743300	0.792700	0.123180
H50	H	0.550500	0.010300	0.922600	0.099401
H51	H	0.883400	0.829600	0.235400	0.099401
H52	H	0.649100	0.920300	0.861600	0.104470
H53	H	0.886100	0.830700	0.358500	0.104470
H54	H	0.854700	0.803800	0.590100	0.123180
H55	H	0.896500	0.065100	0.826400	0.104470
H56	H	0.795800	0.155200	0.884700	0.099401
H57	H	0.790300	0.837000	0.856900	0.102007
H58	H	0.858100	0.805500	0.467600	0.102007
H59	H	0.008600	0.893600	0.660900	0.123180
H60	H	0.925500	0.988500	0.726200	0.102007
H61	H	0.626000	0.743300	0.207300	0.123180
H62	H	0.949500	0.010300	0.077400	0.099401
H63	H	0.616600	0.829600	0.764600	0.099401
H64	H	0.850900	0.920300	0.138400	0.104470
H65	H	0.613900	0.830700	0.641500	0.104470
H66	H	0.645300	0.803800	0.409900	0.123180
H67	H	0.603500	0.065100	0.173600	0.104470
H68	H	0.704200	0.155200	0.115300	0.099401
H69	H	0.709700	0.837000	0.143100	0.102007
H70	H	0.641900	0.805500	0.532400	0.102007
H71	H	0.491400	0.893600	0.339100	0.123180
H72	H	0.574500	0.988500	0.273800	0.102007
H73	H	0.126000	0.756700	0.792700	0.123180
H74	H	0.449500	0.489700	0.922600	0.099401
H75	H	0.116600	0.670400	0.235400	0.099401
H76	H	0.350900	0.579700	0.861600	0.104470
H77	H	0.113900	0.669300	0.358500	0.104470
H78	H	0.145300	0.696200	0.590100	0.123180
H79	H	0.103500	0.434900	0.826400	0.104470
H80	H	0.204200	0.344800	0.884700	0.099401
H81	H	0.209700	0.663000	0.856900	0.102007
H82	H	0.141900	0.694500	0.467600	0.102007
H83	H	0.991400	0.606400	0.660900	0.123180
H84	H	0.074500	0.511500	0.726200	0.102007
H85	H	0.374000	0.756700	0.207300	0.123180
H86	H	0.050500	0.489700	0.077400	0.099401
H87	H	0.383400	0.670400	0.764600	0.099401
H88	H	0.149100	0.579700	0.138400	0.104470
H89	H	0.386100	0.669300	0.641500	0.104470
H90	H	0.354700	0.696200	0.409900	0.123180
H91	H	0.396500	0.434900	0.173600	0.104470
H92	H	0.295800	0.344800	0.115300	0.099401
H93	H	0.290300	0.663000	0.143100	0.102007
H94	H	0.358100	0.694500	0.532400	0.102007
H95	H	0.508600	0.606400	0.339100	0.123180
H96	H	0.425500	0.511500	0.273800	0.102007
C1	C	0.401500	0.849300	0.052400	0.695016
C2	C	0.337300	0.907700	0.090000	-0.152576
C3	C	0.116300	0.207500	0.221400	-0.146650
C4	C	0.051900	0.191500	0.280400	0.154671
C5	C	0.380300	0.978300	0.097100	-0.031176
C6	C	0.069100	0.202500	0.740100	-0.031176
C7	C	0.320500	0.032400	0.133600	-0.147472
C8	C	0.216400	0.017700	0.163300	0.043782
C9	C	0.155000	0.076700	0.202200	0.029832
C10	C	0.067900	0.202300	0.665900	-0.147472
C11	C	0.085800	0.217900	0.434100	-0.146650
C12	C	0.173400	0.946300	0.155000	-0.147472
C13	C	0.233700	0.892500	0.119600	-0.031176
C14	C	0.166700	0.151000	0.183000	-0.080814
C15	C	0.083800	0.217600	0.507900	-0.080814
C16	C	0.036000	0.117900	0.299800	-0.146650
C17	C	0.086600	0.060800	0.260700	-0.080814
C18	C	0.098500	0.849300	0.947600	0.695016
C19	C	0.162700	0.907700	0.910000	-0.152576
C20	C	0.383700	0.207500	0.778600	-0.146650
C21	C	0.448100	0.191500	0.719600	0.154671
C22	C	0.119700	0.978300	0.902900	-0.031176
C23	C	0.430900	0.202500	0.259900	-0.031176
C24	C	0.179500	0.032400	0.866400	-0.147472
C25	C	0.283600	0.017700	0.836700	0.043782
C26	C	0.345000	0.076700	0.797800	0.029832
C27	C	0.432100	0.202300	0.334100	-0.147472
C28	C	0.414200	0.217900	0.565900	-0.146650
C29	C	0.326600	0.946300	0.845000	-0.147472
C30	C	0.266300	0.892500	0.880400	-0.031176
C31	C	0.333300	0.151000	0.817000	-0.080814
C32	C	0.416200	0.217600	0.492100	-0.080814
C33	C	0.464000	0.117900	0.700200	-0.146650
C34	C	0.413400	0.060800	0.739300	-0.080814
C35	C	0.598500	0.650700	0.052400	0.695016
C36	C	0.662700	0.592300	0.090000	-0.152576
C37	C	0.883700	0.292500	0.221400	-0.146650
C38	C	0.948100	0.308500	0.280400	0.154671
C39	C	0.619700	0.521700	0.097100	-0.031176
C40	C	0.930900	0.297500	0.740100	-0.031176
C41	C	0.679500	0.467600	0.133600	-0.147472
C42	C	0.783600	0.482300	0.163300	0.043782
C43	C	0.845000	0.423300	0.202200	0.029832
C44	C	0.932100	0.297700	0.665900	-0.147472
C45	C	0.914200	0.282100	0.434100	-0.146650
C46	C	0.826600	0.553700	0.155000	-0.147472
C47	C	0.766300	0.607500	0.119600	-0.031176
C48	C	0.833300	0.349000	0.183000	-0.080814
C49	C	0.916200	0.282400	0.507900	-0.080814
C50	C	0.964000	0.382100	0.299800	-0.146650
C51	C	0.913400	0.439200	0.260700	-0.080814
C52	C	0.901500	0.650700	0.947600	0.695016
C53	C	0.837300	0.592300	0.910000	-0.152576
C54	C	0.616300	0.292500	0.778600	-0.146650
C55	C	0.551900	0.308500	0.719600	0.154671
C56	C	0.880300	0.521700	0.902900	-0.031176
C57	C	0.569100	0.297500	0.259900	-0.031176
C58	C	0.820500	0.467600	0.866400	-0.147472
C59	C	0.716400	0.482300	0.836700	0.043782
C60	C	0.655000	0.423300	0.797800	0.029832
C61	C	0.567900	0.297700	0.334100	-0.147472
C62	C	0.585800	0.282100	0.565900	-0.146650
C63	C	0.673400	0.553700	0.845000	-0.147472
C64	C	0.733700	0.607500	0.880400	-0.031176
C65	C	0.666700	0.349000	0.817000	-0.080814
C66	C	0.583800	0.282400	0.492100	-0.080814
C67	C	0.536000	0.382100	0.700200	-0.146650
C68	C	0.586600	0.439200	0.739300	-0.080814
C69	C	0.598500	0.150700	0.947600	0.695016
C70	C	0.662700	0.092300	0.910000	-0.152576
C71	C	0.883700	0.792500	0.778600	-0.146650
C72	C	0.948100	0.808500	0.719600	0.154671
C73	C	0.619700	0.021700	0.902900	-0.031176
C74	C	0.930900	0.797500	0.259900	-0.031176
C75	C	0.679500	0.967600	0.866400	-0.147472
C76	C	0.783600	0.982300	0.836700	0.043782
C77	C	0.845000	0.923300	0.797800	0.029832
C78	C	0.932100	0.797700	0.334100	-0.147472
C79	C	0.914200	0.782100	0.565900	-0.146650
C80	C	0.826600	0.053700	0.845000	-0.147472
C81	C	0.766300	0.107500	0.880400	-0.031176
C82	C	0.833300	0.849000	0.817000	-0.080814
C83	C	0.916200	0.782400	0.492100	-0.080814
C84	C	0.964000	0.882100	0.700200	-0.146650
C85	C	0.913400	0.939200	0.739300	-0.080814
C86	C	0.901500	0.150700	0.052400	0.695016
C87	C	0.837300	0.092300	0.090000	-0.152576
C88	C	0.616300	0.792500	0.221400	-0.146650
C89	C	0.551900	0.808500	0.280400	0.154671
C90	C	0.880300	0.021700	0.097100	-0.031176
C91	C	0.569100	0.797500	0.740100	-0.031176
C92	C	0.820500	0.967600	0.133600	-0.147472
C93	C	0.716400	0.982300	0.163300	0.043782
C94	C	0.655000	0.923300	0.202200	0.029832
C95	C	0.567900	0.797700	0.665900	-0.147472
C96	C	0.585800	0.782100	0.434100	-0.146650
C97	C	0.673400	0.053700	0.155000	-0.147472
C98	C	0.733700	0.107500	0.119600	-0.031176
C99	C	0.666700	0.849000	0.183000	-0.080814
C100	C	0.583800	0.782400	0.507900	-0.080814
C101	C	0.536000	0.882100	0.299800	-0.146650
C102	C	0.586600	0.939200	0.260700	-0.080814
C103	C	0.401500	0.349300	0.947600	0.695016
C104	C	0.337300	0.407700	0.910000	-0.152576
C105	C	0.116300	0.707500	0.778600	-0.146650
C106	C	0.051900	0.691500	0.719600	0.154671
C107	C	0.380300	0.478300	0.902900	-0.031176
C108	C	0.069100	0.702500	0.259900	-0.031176
C109	C	0.320500	0.532400	0.866400	-0.147472
C110	C	0.216400	0.517700	0.836700	0.043782
C111	C	0.155000	0.576700	0.797800	0.029832
C112	C	0.067900	0.702300	0.334100	-0.147472
C113	C	0.085800	0.717900	0.565900	-0.146650
C114	C	0.173400	0.446300	0.845000	-0.147472
C115	C	0.233700	0.392500	0.880400	-0.031176
C116	C	0.166700	0.651000	0.817000	-0.080814
C117	C	0.083800	0.717600	0.492100	-0.080814
C118	C	0.036000	0.617900	0.700200	-0.146650
C119	C	0.086600	0.560800	0.739300	-0.080814
C120	C	0.098500	0.349300	0.052400	0.695016
C121	C	0.162700	0.407700	0.090000	-0.152576
C122	C	0.383700	0.707500	0.221400	-0.146650
C123	C	0.448100	0.691500	0.280400	0.154671
C124	C	0.119700	0.478300	0.097100	-0.031176
C125	C	0.430900	0.702500	0.740100	-0.031176
C126	C	0.179500	0.532400	0.133600	-0.147472
C127	C	0.283600	0.517700	0.163300	0.043782
C128	C	0.345000	0.576700	0.202200	0.029832
C129	C	0.432100	0.702300	0.665900	-0.147472
C130	C	0.414200	0.717900	0.434100	-0.146650
C131	C	0.326600	0.446300	0.155000	-0.147472
C132	C	0.266300	0.392500	0.119600	-0.031176
C133	C	0.333300	0.651000	0.183000	-0.080814
C134	C	0.416200	0.717600	0.507900	-0.080814
C135	C	0.464000	0.617900	0.299800	-0.146650
C136	C	0.413400	0.560800	0.260700	-0.080814
C137	C	0.000000	0.250000	0.395800	0.154671
C138	C	0.000000	0.250000	0.626800	0.043782
C139	C	0.000000	0.250000	0.858700	0.695016
C140	C	0.000000	0.250000	0.547100	0.029832
C141	C	0.000000	0.250000	0.778200	-0.152576
C142	C	0.500000	0.250000	0.604200	0.154671
C143	C	0.500000	0.250000	0.373200	0.043782
C144	C	0.500000	0.250000	0.141300	0.695016
C145	C	0.500000	0.250000	0.452900	0.029832
C146	C	0.500000	0.250000	0.221800	-0.152576
C147	C	0.000000	0.750000	0.604200	0.154671
C148	C	0.000000	0.750000	0.373200	0.043782
C149	C	0.000000	0.750000	0.141300	0.695016
C150	C	0.000000	0.750000	0.452900	0.029832
C151	C	0.000000	0.750000	0.221800	-0.152576
C152	C	0.500000	0.750000	0.395800	0.154671
C153	C	0.500000	0.750000	0.626800	0.043782
C154	C	0.500000	0.750000	0.858700	0.695016
C155	C	0.500000	0.750000	0.547100	0.029832
C156	C	0.500000	0.750000	0.778200	-0.152576
N1	N	0.000000	0.250000	0.319600	-0.100929
N2	N	0.500000	0.250000	0.680400	-0.100929
N3	N	0.000000	0.750000	0.680400	-0.100929
N4	N	0.500000	0.750000	0.319600	-0.100929
O1	O	0.494800	0.867690	0.026580	-0.634344
O2	O	0.077700	0.216320	0.889500	-0.634344
O3	O	0.359800	0.785420	0.049000	-0.634344
O4	O	0.005200	0.867690	0.973420	-0.634344
O5	O	0.422300	0.216320	0.110500	-0.634344
O6	O	0.140200	0.785420	0.951000	-0.634344
O7	O	0.505200	0.632310	0.026580	-0.634344
O8	O	0.922300	0.283680	0.889500	-0.634344
O9	O	0.640200	0.714580	0.049000	-0.634344
O10	O	0.994800	0.632310	0.973420	-0.634344
O11	O	0.577700	0.283680	0.110500	-0.634344
O12	O	0.859800	0.714580	0.951000	-0.634344
O13	O	0.505200	0.132310	0.973420	-0.634344
O14	O	0.922300	0.783680	0.110500	-0.634344
O15	O	0.640200	0.214580	0.951000	-0.634344
O16	O	0.994800	0.132310	0.026580	-0.634344
O17	O	0.577700	0.783680	0.889500	-0.634344
O18	O	0.859800	0.214580	0.049000	-0.634344
O19	O	0.494800	0.367690	0.973420	-0.634344
O20	O	0.077700	0.716320	0.110500	-0.634344
O21	O	0.359800	0.285420	0.951000	-0.634344
O22	O	0.005200	0.367690	0.026580	-0.634344
O23	O	0.422300	0.716320	0.889500	-0.634344
O24	O	0.140200	0.285420	0.049000	-0.634344
O25	O	0.750000	0.853200	0.000000	-0.680175
O26	O	0.250000	0.646800	0.000000	-0.680175
O27	O	0.250000	0.146800	0.000000	-0.680175
O28	O	0.750000	0.353200	0.000000	-0.680175
