data_CEGFAW_clean_PM
_symmetry_space_group_name_H-M	'P1'
_cell_length_a	11.113700
_cell_length_b	12.683600
_cell_length_c	19.726000
_cell_angle_alpha	90.000000
_cell_angle_beta	90.000000
_cell_angle_gamma	101.835000
_symmetry_Int_Tables_number 1

loop_
_symmetry_equiv_pos_as_xyz
'x,y,z'

loop_
_atom_site_label
_atom_site_type_symbol
_atom_site_fract_x
_atom_site_fract_y
_atom_site_fract_z
_atom_site_charge
Ag1	Ag	0.642300	0.654420	0.047600	0.262660
Ag2	Ag	0.765150	0.245120	0.167050	0.291235
Ag3	Ag	0.858900	0.840040	0.029880	0.262660
Ag4	Ag	0.485870	0.764180	0.765110	0.291235
Ag5	Ag	0.857700	0.345580	0.547600	0.262660
Ag6	Ag	0.734850	0.754880	0.667050	0.291235
Ag7	Ag	0.641100	0.159960	0.529880	0.262660
Ag8	Ag	0.014130	0.235820	0.265110	0.291235
Ag9	Ag	0.357700	0.345580	0.952400	0.262660
Ag10	Ag	0.234850	0.754880	0.832950	0.291235
Ag11	Ag	0.141100	0.159960	0.970120	0.262660
Ag12	Ag	0.514130	0.235820	0.234890	0.291235
Ag13	Ag	0.142300	0.654420	0.452400	0.262660
Ag14	Ag	0.265150	0.245120	0.332950	0.291235
Ag15	Ag	0.358900	0.840040	0.470120	0.262660
Ag16	Ag	0.985870	0.764180	0.734890	0.291235
H1	H	0.683700	0.624100	0.213500	0.085109
H2	H	0.732000	0.459100	0.262900	0.083746
H3	H	0.709500	0.459800	0.003200	0.128965
H4	H	0.808600	0.394100	0.029900	0.128965
H5	H	0.665000	0.341500	0.034000	0.128965
H6	H	0.800500	0.024500	0.255700	0.083746
H7	H	0.844300	0.862100	0.200400	0.085109
H8	H	0.770100	0.157700	0.037600	0.128965
H9	H	0.866800	0.092300	0.007600	0.128965
H10	H	0.722900	0.040500	0.005800	0.128965
H11	H	0.449300	0.615500	0.524100	0.085109
H12	H	0.487900	0.583600	0.645400	0.083746
H13	H	0.349200	0.936500	0.594200	0.128965
H14	H	0.441300	0.949600	0.657400	0.128965
H15	H	0.301000	0.889300	0.666800	0.128965
H16	H	0.538500	0.880100	0.014600	0.085109
H17	H	0.483800	0.928400	0.898400	0.083746
H18	H	0.600200	0.613900	0.828500	0.128965
H19	H	0.559300	0.554200	0.898800	0.128965
H20	H	0.698000	0.617800	0.888500	0.128965
H21	H	0.816300	0.375900	0.713500	0.085109
H22	H	0.768000	0.540900	0.762900	0.083746
H23	H	0.790500	0.540200	0.503200	0.128965
H24	H	0.691400	0.605900	0.529900	0.128965
H25	H	0.835000	0.658500	0.534000	0.128965
H26	H	0.699500	0.975500	0.755700	0.083746
H27	H	0.655700	0.137900	0.700400	0.085109
H28	H	0.729900	0.842300	0.537600	0.128965
H29	H	0.633200	0.907700	0.507600	0.128965
H30	H	0.777100	0.959500	0.505800	0.128965
H31	H	0.050700	0.384500	0.024100	0.085109
H32	H	0.012100	0.416400	0.145400	0.083746
H33	H	0.150800	0.063500	0.094200	0.128965
H34	H	0.058700	0.050400	0.157400	0.128965
H35	H	0.199000	0.110700	0.166800	0.128965
H36	H	0.961500	0.119900	0.514600	0.085109
H37	H	0.016200	0.071600	0.398400	0.083746
H38	H	0.899800	0.386100	0.328500	0.128965
H39	H	0.940700	0.445800	0.398800	0.128965
H40	H	0.802000	0.382200	0.388500	0.128965
H41	H	0.316300	0.375900	0.786500	0.085109
H42	H	0.268000	0.540900	0.737100	0.083746
H43	H	0.290500	0.540200	0.996800	0.128965
H44	H	0.191400	0.605900	0.970100	0.128965
H45	H	0.335000	0.658500	0.966000	0.128965
H46	H	0.199500	0.975500	0.744300	0.083746
H47	H	0.155700	0.137900	0.799600	0.085109
H48	H	0.229900	0.842300	0.962400	0.128965
H49	H	0.133200	0.907700	0.992400	0.128965
H50	H	0.277100	0.959500	0.994200	0.128965
H51	H	0.550700	0.384500	0.475900	0.085109
H52	H	0.512100	0.416400	0.354600	0.083746
H53	H	0.650800	0.063500	0.405800	0.128965
H54	H	0.558700	0.050400	0.342600	0.128965
H55	H	0.699000	0.110700	0.333200	0.128965
H56	H	0.461500	0.119900	0.985400	0.085109
H57	H	0.516200	0.071600	0.101600	0.083746
H58	H	0.399800	0.386100	0.171500	0.128965
H59	H	0.440700	0.445800	0.101200	0.128965
H60	H	0.302000	0.382200	0.111500	0.128965
H61	H	0.183700	0.624100	0.286500	0.085109
H62	H	0.232000	0.459100	0.237100	0.083746
H63	H	0.209500	0.459800	0.496800	0.128965
H64	H	0.308600	0.394100	0.470100	0.128965
H65	H	0.165000	0.341500	0.466000	0.128965
H66	H	0.300500	0.024500	0.244300	0.083746
H67	H	0.344300	0.862100	0.299600	0.085109
H68	H	0.270100	0.157700	0.462400	0.128965
H69	H	0.366800	0.092300	0.492400	0.128965
H70	H	0.222900	0.040500	0.494200	0.128965
H71	H	0.949300	0.615500	0.975900	0.085109
H72	H	0.987900	0.583600	0.854600	0.083746
H73	H	0.849200	0.936500	0.905800	0.128965
H74	H	0.941300	0.949600	0.842600	0.128965
H75	H	0.801000	0.889300	0.833200	0.128965
H76	H	0.038500	0.880100	0.485400	0.085109
H77	H	0.983800	0.928400	0.601600	0.083746
H78	H	0.100200	0.613900	0.671500	0.128965
H79	H	0.059300	0.554200	0.601200	0.128965
H80	H	0.198000	0.617800	0.611500	0.128965
C1	C	0.720600	0.456200	0.106500	0.385826
C2	C	0.698000	0.563500	0.188700	0.024767
C3	C	0.724900	0.473000	0.215900	0.022252
C4	C	0.726400	0.408800	0.037400	-0.445600
C5	C	0.798500	0.036700	0.099800	0.385826
C6	C	0.803700	0.013200	0.208200	0.022252
C7	C	0.827500	0.923700	0.177800	0.024767
C8	C	0.788800	0.086000	0.031900	-0.445600
C9	C	0.405200	0.797300	0.618100	0.385826
C10	C	0.440600	0.662200	0.560600	0.024767
C11	C	0.461900	0.644700	0.627300	0.022252
C12	C	0.371300	0.902200	0.635600	-0.445600
C13	C	0.578100	0.717400	0.904600	0.385826
C14	C	0.544400	0.839800	0.974600	0.024767
C15	C	0.514500	0.866300	0.910500	0.022252
C16	C	0.611800	0.617200	0.877800	-0.445600
C17	C	0.779400	0.543800	0.606500	0.385826
C18	C	0.802000	0.436500	0.688700	0.024767
C19	C	0.775100	0.527000	0.715900	0.022252
C20	C	0.773600	0.591200	0.537400	-0.445600
C21	C	0.701500	0.963300	0.599800	0.385826
C22	C	0.696300	0.986800	0.708200	0.022252
C23	C	0.672500	0.076300	0.677800	0.024767
C24	C	0.711200	0.914000	0.531900	-0.445600
C25	C	0.094800	0.202700	0.118100	0.385826
C26	C	0.059400	0.337800	0.060600	0.024767
C27	C	0.038100	0.355300	0.127300	0.022252
C28	C	0.128700	0.097800	0.135600	-0.445600
C29	C	0.921900	0.282600	0.404600	0.385826
C30	C	0.955600	0.160200	0.474600	0.024767
C31	C	0.985500	0.133700	0.410500	0.022252
C32	C	0.888200	0.382800	0.377800	-0.445600
C33	C	0.279400	0.543800	0.893500	0.385826
C34	C	0.302000	0.436500	0.811300	0.024767
C35	C	0.275100	0.527000	0.784100	0.022252
C36	C	0.273600	0.591200	0.962600	-0.445600
C37	C	0.201500	0.963300	0.900200	0.385826
C38	C	0.196300	0.986800	0.791800	0.022252
C39	C	0.172500	0.076300	0.822200	0.024767
C40	C	0.211200	0.914000	0.968100	-0.445600
C41	C	0.594800	0.202700	0.381900	0.385826
C42	C	0.559400	0.337800	0.439400	0.024767
C43	C	0.538100	0.355300	0.372700	0.022252
C44	C	0.628700	0.097800	0.364400	-0.445600
C45	C	0.421900	0.282600	0.095400	0.385826
C46	C	0.455600	0.160200	0.025400	0.024767
C47	C	0.485500	0.133700	0.089500	0.022252
C48	C	0.388200	0.382800	0.122200	-0.445600
C49	C	0.220600	0.456200	0.393500	0.385826
C50	C	0.198000	0.563500	0.311300	0.024767
C51	C	0.224900	0.473000	0.284100	0.022252
C52	C	0.226400	0.408800	0.462600	-0.445600
C53	C	0.298500	0.036700	0.400200	0.385826
C54	C	0.303700	0.013200	0.291800	0.022252
C55	C	0.327500	0.923700	0.322200	0.024767
C56	C	0.288800	0.086000	0.468100	-0.445600
C57	C	0.905200	0.797300	0.881900	0.385826
C58	C	0.940600	0.662200	0.939400	0.024767
C59	C	0.961900	0.644700	0.872700	0.022252
C60	C	0.871300	0.902200	0.864400	-0.445600
C61	C	0.078100	0.717400	0.595400	0.385826
C62	C	0.044400	0.839800	0.525400	0.024767
C63	C	0.014500	0.866300	0.589500	0.022252
C64	C	0.111800	0.617200	0.622200	-0.445600
N1	N	0.694700	0.552900	0.118900	-0.419968
N2	N	0.740300	0.404300	0.163700	-0.399973
N3	N	0.785000	0.085400	0.158700	-0.399973
N4	N	0.823200	0.937500	0.108200	-0.419968
N5	N	0.404400	0.759100	0.555400	-0.419968
N6	N	0.439100	0.731100	0.664000	-0.399973
N7	N	0.535800	0.789100	0.867000	-0.399973
N8	N	0.584700	0.744500	0.970800	-0.419968
N9	N	0.805300	0.447100	0.618900	-0.419968
N10	N	0.759700	0.595700	0.663700	-0.399973
N11	N	0.715000	0.914600	0.658700	-0.399973
N12	N	0.676800	0.062500	0.608200	-0.419968
N13	N	0.095600	0.240900	0.055400	-0.419968
N14	N	0.060900	0.268900	0.164000	-0.399973
N15	N	0.964200	0.210900	0.367000	-0.399973
N16	N	0.915300	0.255500	0.470800	-0.419968
N17	N	0.305300	0.447100	0.881100	-0.419968
N18	N	0.259700	0.595700	0.836300	-0.399973
N19	N	0.215000	0.914600	0.841300	-0.399973
N20	N	0.176800	0.062500	0.891800	-0.419968
N21	N	0.595600	0.240900	0.444600	-0.419968
N22	N	0.560900	0.268900	0.336000	-0.399973
N23	N	0.464200	0.210900	0.133000	-0.399973
N24	N	0.415300	0.255500	0.029200	-0.419968
N25	N	0.194700	0.552900	0.381100	-0.419968
N26	N	0.240300	0.404300	0.336300	-0.399973
N27	N	0.285000	0.085400	0.341300	-0.399973
N28	N	0.323200	0.937500	0.391800	-0.419968
N29	N	0.904400	0.759100	0.944600	-0.419968
N30	N	0.939100	0.731100	0.836000	-0.399973
N31	N	0.035800	0.789100	0.633000	-0.399973
N32	N	0.084700	0.744500	0.529200	-0.419968
