data_CETFUD_clean_PM
_symmetry_space_group_name_H-M	'P1'
_cell_length_a	7.744700
_cell_length_b	10.193500
_cell_length_c	12.146400
_cell_angle_alpha	80.750998
_cell_angle_beta	80.286998
_cell_angle_gamma	82.817997
_symmetry_Int_Tables_number 1

loop_
_symmetry_equiv_pos_as_xyz
'x,y,z'

loop_
_atom_site_label
_atom_site_type_symbol
_atom_site_fract_x
_atom_site_fract_y
_atom_site_fract_z
_atom_site_charge
Pr1	Pr	0.739080	0.009990	0.558980	2.211179
Pr2	Pr	0.260920	0.990010	0.441020	2.211179
H1	H	0.135600	0.585100	0.455300	0.069156
H2	H	0.079100	0.482800	0.387700	0.069156
H3	H	0.808700	0.776600	0.238600	0.123183
H4	H	0.998700	0.708700	0.249900	0.123183
H5	H	0.956300	0.841800	0.884000	0.069156
H6	H	0.157100	0.816000	0.894000	0.069156
H7	H	0.890800	0.689900	0.046500	0.069156
H8	H	0.091400	0.657600	0.055500	0.069156
H9	H	0.907600	0.912300	0.079000	0.064437
H10	H	0.104400	0.872300	0.096200	0.064437
H11	H	0.460400	0.448800	0.423700	0.125941
H12	H	0.374800	0.358000	0.359300	0.125941
H13	H	0.245200	0.414500	0.581600	0.064437
H14	H	0.168600	0.307600	0.529400	0.064437
H15	H	0.155600	0.593000	0.861700	0.064853
H16	H	0.957400	0.624400	0.845700	0.064853
H17	H	0.161300	0.630000	0.673500	0.123084
H18	H	0.224700	0.758700	0.702100	0.123084
H19	H	0.864400	0.414900	0.544700	0.069156
H20	H	0.920900	0.517200	0.612300	0.069156
H21	H	0.191300	0.223400	0.761400	0.123183
H22	H	0.001300	0.291300	0.750100	0.123183
H23	H	0.043700	0.158200	0.116000	0.069156
H24	H	0.842900	0.184000	0.106000	0.069156
H25	H	0.109200	0.310100	0.953500	0.069156
H26	H	0.908600	0.342400	0.944500	0.069156
H27	H	0.092400	0.087700	0.921000	0.064437
H28	H	0.895600	0.127700	0.903800	0.064437
H29	H	0.539600	0.551200	0.576300	0.125941
H30	H	0.625200	0.642000	0.640700	0.125941
H31	H	0.754800	0.585500	0.418400	0.064437
H32	H	0.831400	0.692400	0.470600	0.064437
H33	H	0.844400	0.407000	0.138300	0.064853
H34	H	0.042600	0.375600	0.154300	0.064853
H35	H	0.838700	0.370000	0.326500	0.123084
H36	H	0.775300	0.241300	0.297900	0.123084
C1	C	0.506800	0.249900	0.481900	0.789098
C2	C	0.950700	0.888500	0.307100	0.781428
C3	C	0.091200	0.498800	0.462500	-0.130024
C4	C	0.931500	0.793000	0.228400	-0.345985
C5	C	0.048100	0.774400	0.907500	-0.129584
C6	C	0.002600	0.727800	0.032600	-0.130024
C7	C	0.990100	0.839100	0.105300	-0.068275
C8	C	0.397100	0.370400	0.432900	-0.344824
C9	C	0.221600	0.391300	0.511600	-0.068260
C10	C	0.068500	0.662700	0.835500	-0.068042
C11	C	0.123800	0.708300	0.710800	-0.340843
C12	C	0.982500	0.793600	0.651600	0.768424
C13	C	0.493200	0.750100	0.518100	0.789098
C14	C	0.049300	0.111500	0.692900	0.781428
C15	C	0.908800	0.501200	0.537500	-0.130024
C16	C	0.068500	0.207000	0.771600	-0.345985
C17	C	0.951900	0.225600	0.092500	-0.129584
C18	C	0.997400	0.272200	0.967400	-0.130024
C19	C	0.009900	0.160900	0.894700	-0.068275
C20	C	0.602900	0.629600	0.567100	-0.344824
C21	C	0.778400	0.608700	0.488400	-0.068260
C22	C	0.931500	0.337300	0.164500	-0.068042
C23	C	0.876200	0.291700	0.289200	-0.340843
C24	C	0.017500	0.206400	0.348400	0.768424
O1	O	0.811500	0.937600	0.363400	-0.717057
O2	O	0.612800	0.260300	0.545200	-0.653390
O3	O	0.488000	0.135100	0.458000	-0.874776
O4	O	0.823700	0.798700	0.695600	-0.639998
O5	O	0.103100	0.913600	0.312100	-0.717057
O6	O	0.029100	0.859300	0.554400	-0.868794
O7	O	0.188500	0.062400	0.636600	-0.717057
O8	O	0.387200	0.739700	0.454800	-0.653390
O9	O	0.512000	0.864900	0.542000	-0.874776
O10	O	0.176300	0.201300	0.304400	-0.639998
O11	O	0.896900	0.086400	0.687900	-0.717057
O12	O	0.970900	0.140700	0.445600	-0.868794
