data_CEZMUR_PM
_symmetry_space_group_name_H-M	'P1'
_cell_length_a	7.967400
_cell_length_b	17.755000
_cell_length_c	21.296000
_cell_angle_alpha	90.000000
_cell_angle_beta	90.000000
_cell_angle_gamma	90.000000
_symmetry_Int_Tables_number 1

loop_
_symmetry_equiv_pos_as_xyz
'x,y,z'

loop_
_atom_site_label
_atom_site_type_symbol
_atom_site_fract_x
_atom_site_fract_y
_atom_site_fract_z
_atom_site_charge
Na1	Na	0.886900	0.000000	0.500000	1.088401
Na2	Na	0.113100	0.000000	0.000000	1.088401
Na3	Na	0.386900	0.500000	0.500000	1.088401
Na4	Na	0.613100	0.500000	0.000000	1.088401
Na5	Na	0.500000	0.614500	0.750000	0.689977
Na6	Na	0.500000	0.385500	0.250000	0.689977
Na7	Na	0.000000	0.114500	0.750000	0.689977
Na8	Na	0.000000	0.885500	0.250000	0.689977
U1	U	0.030570	0.428378	0.618092	2.276100
U2	U	0.969430	0.571622	0.118092	2.276100
U3	U	0.969430	0.428378	0.881908	2.276100
U4	U	0.030570	0.571622	0.381908	2.276100
U5	U	0.530570	0.928378	0.618092	2.276100
U6	U	0.469430	0.071622	0.118092	2.276100
U7	U	0.469430	0.928378	0.881908	2.276100
U8	U	0.530570	0.071622	0.381908	2.276100
H1	H	0.150400	0.831800	0.541100	0.145238
H2	H	0.849600	0.168200	0.041100	0.145238
H3	H	0.849600	0.831800	0.958900	0.145238
H4	H	0.150400	0.168200	0.458900	0.145238
H5	H	0.650400	0.331800	0.541100	0.145238
H6	H	0.349600	0.668200	0.041100	0.145238
H7	H	0.349600	0.331800	0.958900	0.145238
H8	H	0.650400	0.668200	0.458900	0.145238
H9	H	0.282900	0.699300	0.547600	0.145238
H10	H	0.717100	0.300700	0.047600	0.145238
H11	H	0.717100	0.699300	0.952400	0.145238
H12	H	0.282900	0.300700	0.452400	0.145238
H13	H	0.782900	0.199300	0.547600	0.145238
H14	H	0.217100	0.800700	0.047600	0.145238
H15	H	0.217100	0.199300	0.952400	0.145238
H16	H	0.782900	0.800700	0.452400	0.145238
H17	H	0.628800	0.221500	0.717700	0.145238
H18	H	0.371200	0.778500	0.217700	0.145238
H19	H	0.371200	0.221500	0.782300	0.145238
H20	H	0.628800	0.778500	0.282300	0.145238
H21	H	0.128800	0.721500	0.717700	0.145238
H22	H	0.871200	0.278500	0.217700	0.145238
H23	H	0.871200	0.721500	0.782300	0.145238
H24	H	0.128800	0.278500	0.282300	0.145238
C1	C	0.800700	0.830400	0.586900	0.704866
C2	C	0.199300	0.169600	0.086900	0.704866
C3	C	0.199300	0.830400	0.913100	0.704866
C4	C	0.800700	0.169600	0.413100	0.704866
C5	C	0.300700	0.330400	0.586900	0.704866
C6	C	0.699300	0.669600	0.086900	0.704866
C7	C	0.699300	0.330400	0.913100	0.704866
C8	C	0.300700	0.669600	0.413100	0.704866
C9	C	0.942400	0.778100	0.574900	0.104954
C10	C	0.057600	0.221900	0.074900	0.104954
C11	C	0.057600	0.778100	0.925100	0.104954
C12	C	0.942400	0.221900	0.425100	0.104954
C13	C	0.442400	0.278100	0.574900	0.104954
C14	C	0.557600	0.721900	0.074900	0.104954
C15	C	0.557600	0.278100	0.925100	0.104954
C16	C	0.442400	0.721900	0.425100	0.104954
C17	C	0.618900	0.336700	0.722900	0.093122
C18	C	0.381100	0.663300	0.222900	0.093122
C19	C	0.381100	0.336700	0.777100	0.093122
C20	C	0.618900	0.663300	0.277100	0.093122
C21	C	0.118900	0.836700	0.722900	0.093122
C22	C	0.881100	0.163300	0.222900	0.093122
C23	C	0.881100	0.836700	0.777100	0.093122
C24	C	0.118900	0.163300	0.277100	0.093122
C25	C	0.057700	0.666500	0.577300	0.104954
C26	C	0.942300	0.333500	0.077300	0.104954
C27	C	0.942300	0.666500	0.922700	0.104954
C28	C	0.057700	0.333500	0.422700	0.104954
C29	C	0.557700	0.166500	0.577300	0.104954
C30	C	0.442300	0.833500	0.077300	0.104954
C31	C	0.442300	0.166500	0.922700	0.104954
C32	C	0.557700	0.833500	0.422700	0.104954
C33	C	0.051100	0.585900	0.588400	0.704866
C34	C	0.948900	0.414100	0.088400	0.704866
C35	C	0.948900	0.585900	0.911600	0.704866
C36	C	0.051100	0.414100	0.411600	0.704866
C37	C	0.551100	0.085900	0.588400	0.704866
C38	C	0.448900	0.914100	0.088400	0.704866
C39	C	0.448900	0.085900	0.911600	0.704866
C40	C	0.551100	0.914100	0.411600	0.704866
C41	C	0.099400	0.787500	0.554400	-0.053430
C42	C	0.900600	0.212500	0.054400	-0.053430
C43	C	0.900600	0.787500	0.945600	-0.053430
C44	C	0.099400	0.212500	0.445600	-0.053430
C45	C	0.599400	0.287500	0.554400	-0.053430
C46	C	0.400600	0.712500	0.054400	-0.053430
C47	C	0.400600	0.287500	0.945600	-0.053430
C48	C	0.599400	0.712500	0.445600	-0.053430
C49	C	0.173000	0.712100	0.557700	-0.053430
C50	C	0.827000	0.287900	0.057700	-0.053430
C51	C	0.827000	0.712100	0.942300	-0.053430
C52	C	0.173000	0.287900	0.442300	-0.053430
C53	C	0.673000	0.212100	0.557700	-0.053430
C54	C	0.327000	0.787900	0.057700	-0.053430
C55	C	0.327000	0.212100	0.942300	-0.053430
C56	C	0.673000	0.787900	0.442300	-0.053430
C57	C	0.752200	0.371200	0.686800	0.679590
C58	C	0.247800	0.628800	0.186800	0.679590
C59	C	0.247800	0.371200	0.813200	0.679590
C60	C	0.752200	0.628800	0.313200	0.679590
C61	C	0.252200	0.871200	0.686800	0.679590
C62	C	0.747800	0.128800	0.186800	0.679590
C63	C	0.747800	0.871200	0.813200	0.679590
C64	C	0.252200	0.128800	0.313200	0.679590
C65	C	0.572500	0.263900	0.732400	-0.048186
C66	C	0.427500	0.736100	0.232400	-0.048186
C67	C	0.427500	0.263900	0.767600	-0.048186
C68	C	0.572500	0.736100	0.267600	-0.048186
C69	C	0.072500	0.763900	0.732400	-0.048186
C70	C	0.927500	0.236100	0.232400	-0.048186
C71	C	0.927500	0.763900	0.767600	-0.048186
C72	C	0.072500	0.236100	0.267600	-0.048186
O1	O	0.670500	0.806400	0.611700	-0.620457
O2	O	0.329500	0.193600	0.111700	-0.620457
O3	O	0.329500	0.806400	0.888300	-0.620457
O4	O	0.670500	0.193600	0.388300	-0.620457
O5	O	0.170500	0.306400	0.611700	-0.620457
O6	O	0.829500	0.693600	0.111700	-0.620457
O7	O	0.829500	0.306400	0.888300	-0.620457
O8	O	0.170500	0.693600	0.388300	-0.620457
O9	O	0.811400	0.899700	0.570400	-0.697199
O10	O	0.188600	0.100300	0.070400	-0.697199
O11	O	0.188600	0.899700	0.929600	-0.697199
O12	O	0.811400	0.100300	0.429600	-0.697199
O13	O	0.311400	0.399700	0.570400	-0.697199
O14	O	0.688600	0.600300	0.070400	-0.697199
O15	O	0.688600	0.399700	0.929600	-0.697199
O16	O	0.311400	0.600300	0.429600	-0.697199
O17	O	0.921600	0.557800	0.616100	-0.620457
O18	O	0.078400	0.442200	0.116100	-0.620457
O19	O	0.078400	0.557800	0.883900	-0.620457
O20	O	0.921600	0.442200	0.383900	-0.620457
O21	O	0.421600	0.057800	0.616100	-0.620457
O22	O	0.578400	0.942200	0.116100	-0.620457
O23	O	0.578400	0.057800	0.883900	-0.620457
O24	O	0.421600	0.942200	0.383900	-0.620457
O25	O	0.751800	0.438800	0.671400	-0.634141
O26	O	0.248200	0.561200	0.171400	-0.634141
O27	O	0.248200	0.438800	0.828600	-0.634141
O28	O	0.751800	0.561200	0.328600	-0.634141
O29	O	0.251800	0.938800	0.671400	-0.634141
O30	O	0.748200	0.061200	0.171400	-0.634141
O31	O	0.748200	0.938800	0.828600	-0.634141
O32	O	0.251800	0.061200	0.328600	-0.634141
O33	O	0.172200	0.544500	0.574700	-0.697199
O34	O	0.827800	0.455500	0.074700	-0.697199
O35	O	0.827800	0.544500	0.925300	-0.697199
O36	O	0.172200	0.455500	0.425300	-0.697199
O37	O	0.672200	0.044500	0.574700	-0.697199
O38	O	0.327800	0.955500	0.074700	-0.697199
O39	O	0.327800	0.044500	0.925300	-0.697199
O40	O	0.672200	0.955500	0.425300	-0.697199
O41	O	0.871500	0.327700	0.669100	-0.634141
O42	O	0.128500	0.672300	0.169100	-0.634141
O43	O	0.128500	0.327700	0.830900	-0.634141
O44	O	0.871500	0.672300	0.330900	-0.634141
O45	O	0.371500	0.827700	0.669100	-0.634141
O46	O	0.628500	0.172300	0.169100	-0.634141
O47	O	0.628500	0.827700	0.830900	-0.634141
O48	O	0.371500	0.172300	0.330900	-0.634141
O49	O	0.910300	0.705100	0.589900	-0.032316
O50	O	0.089700	0.294900	0.089900	-0.032316
O51	O	0.089700	0.705100	0.910100	-0.032316
O52	O	0.910300	0.294900	0.410100	-0.032316
O53	O	0.410300	0.205100	0.589900	-0.032316
O54	O	0.589700	0.794900	0.089900	-0.032316
O55	O	0.589700	0.205100	0.910100	-0.032316
O56	O	0.410300	0.794900	0.410100	-0.032316
O57	O	0.500000	0.383800	0.750000	-0.041668
O58	O	0.500000	0.616200	0.250000	-0.041668
O59	O	0.000000	0.883800	0.750000	-0.041668
O60	O	0.000000	0.116200	0.250000	-0.041668
O61	O	0.134600	0.446300	0.689700	-0.485672
O62	O	0.865400	0.553700	0.189700	-0.485672
O63	O	0.865400	0.446300	0.810300	-0.485672
O64	O	0.134600	0.553700	0.310300	-0.485672
O65	O	0.634600	0.946300	0.689700	-0.485672
O66	O	0.365400	0.053700	0.189700	-0.485672
O67	O	0.365400	0.946300	0.810300	-0.485672
O68	O	0.634600	0.053700	0.310300	-0.485672
O69	O	0.928000	0.410400	0.546200	-0.485672
O70	O	0.072000	0.589600	0.046200	-0.485672
O71	O	0.072000	0.410400	0.953800	-0.485672
O72	O	0.928000	0.589600	0.453800	-0.485672
O73	O	0.428000	0.910400	0.546200	-0.485672
O74	O	0.572000	0.089600	0.046200	-0.485672
O75	O	0.572000	0.910400	0.953800	-0.485672
O76	O	0.428000	0.089600	0.453800	-0.485672
O77	O	0.083100	0.940400	0.438500	-0.246016
O78	O	0.916900	0.059600	0.938500	-0.246016
O79	O	0.916900	0.940400	0.061500	-0.246016
O80	O	0.083100	0.059600	0.561500	-0.246016
O81	O	0.583100	0.440400	0.438500	-0.246016
O82	O	0.416900	0.559600	0.938500	-0.246016
O83	O	0.416900	0.440400	0.061500	-0.246016
O84	O	0.583100	0.559600	0.561500	-0.246016
O85	O	0.445000	0.675200	0.833700	-0.332104
O86	O	0.555000	0.324800	0.333700	-0.332104
O87	O	0.555000	0.675200	0.666300	-0.332104
O88	O	0.445000	0.324800	0.166300	-0.332104
O89	O	0.945000	0.175200	0.833700	-0.332104
O90	O	0.055000	0.824800	0.333700	-0.332104
O91	O	0.055000	0.175200	0.666300	-0.332104
O92	O	0.945000	0.824800	0.166300	-0.332104
O93	O	0.262000	0.572400	0.731000	-0.332104
O94	O	0.738000	0.427600	0.231000	-0.332104
O95	O	0.738000	0.572400	0.769000	-0.332104
O96	O	0.262000	0.427600	0.269000	-0.332104
O97	O	0.762000	0.072400	0.731000	-0.332104
O98	O	0.238000	0.927600	0.231000	-0.332104
O99	O	0.238000	0.072400	0.769000	-0.332104
O100	O	0.762000	0.927600	0.269000	-0.332104
