data_CIJVOH01_clean_PM
_symmetry_space_group_name_H-M	'P1'
_cell_length_a	8.414900
_cell_length_b	9.813000
_cell_length_c	21.028000
_cell_angle_alpha	90.000000
_cell_angle_beta	90.000000
_cell_angle_gamma	90.000000
_symmetry_Int_Tables_number 1

loop_
_symmetry_equiv_pos_as_xyz
'x,y,z'

loop_
_atom_site_label
_atom_site_type_symbol
_atom_site_fract_x
_atom_site_fract_y
_atom_site_fract_z
_atom_site_charge
Cd1	Cd	0.495990	0.107710	0.783020	0.928302
Cd2	Cd	0.305720	0.662710	0.977260	0.928302
Cd3	Cd	0.004010	0.892290	0.283020	0.928302
Cd4	Cd	0.194280	0.337290	0.477260	0.928302
Cd5	Cd	0.504010	0.607710	0.716980	0.928302
Cd6	Cd	0.694280	0.162710	0.522740	0.928302
Cd7	Cd	0.995990	0.392290	0.216980	0.928302
Cd8	Cd	0.805720	0.837290	0.022740	0.928302
H1	H	0.782900	0.503600	0.846100	0.049440
H2	H	0.663700	0.415300	0.937500	0.049440
H3	H	0.436000	0.406300	0.917000	0.305420
H4	H	0.690000	0.674000	0.810100	0.305420
H5	H	0.717100	0.496400	0.346100	0.049440
H6	H	0.836300	0.584700	0.437500	0.049440
H7	H	0.064000	0.593700	0.417000	0.305420
H8	H	0.810000	0.326000	0.310100	0.305420
H9	H	0.217100	0.003600	0.653900	0.049440
H10	H	0.336300	0.915300	0.562500	0.049440
H11	H	0.564000	0.906300	0.583000	0.305420
H12	H	0.310000	0.174000	0.689900	0.305420
H13	H	0.282900	0.996400	0.153900	0.049440
H14	H	0.163700	0.084700	0.062500	0.049440
H15	H	0.936000	0.093700	0.083000	0.305420
H16	H	0.190000	0.826000	0.189900	0.305420
C1	C	0.598900	0.383100	0.812940	0.556310
C2	C	0.666700	0.506400	0.848570	-0.054519
C3	C	0.616300	0.497200	0.918720	-0.054519
C4	C	0.673900	0.621500	0.955480	0.556310
C5	C	0.901100	0.616900	0.312940	0.556310
C6	C	0.833300	0.493600	0.348570	-0.054519
C7	C	0.883700	0.502800	0.418720	-0.054519
C8	C	0.826100	0.378500	0.455480	0.556310
C9	C	0.401100	0.883100	0.687060	0.556310
C10	C	0.333300	0.006400	0.651430	-0.054519
C11	C	0.383700	0.997200	0.581280	-0.054519
C12	C	0.326100	0.121500	0.544520	0.556310
C13	C	0.098900	0.116900	0.187060	0.556310
C14	C	0.166700	0.993600	0.151430	-0.054519
C15	C	0.116300	0.002800	0.081280	-0.054519
C16	C	0.173900	0.878500	0.044520	0.556310
O1	O	0.602400	0.272470	0.842280	-0.647802
O2	O	0.545700	0.396900	0.757790	-0.647802
O3	O	0.612700	0.630700	0.821910	-0.489349
O4	O	0.448500	0.487930	0.923580	-0.489349
O5	O	0.578100	0.698550	0.983070	-0.647802
O6	O	0.821300	0.643100	0.956630	-0.647802
O7	O	0.897600	0.727530	0.342280	-0.647802
O8	O	0.954300	0.603100	0.257790	-0.647802
O9	O	0.887300	0.369300	0.321910	-0.489349
O10	O	0.051500	0.512070	0.423580	-0.489349
O11	O	0.921900	0.301450	0.483070	-0.647802
O12	O	0.678700	0.356900	0.456630	-0.647802
O13	O	0.397600	0.772470	0.657720	-0.647802
O14	O	0.454300	0.896900	0.742210	-0.647802
O15	O	0.387300	0.130700	0.678090	-0.489349
O16	O	0.551500	0.987930	0.576420	-0.489349
O17	O	0.421900	0.198550	0.516930	-0.647802
O18	O	0.178700	0.143100	0.543370	-0.647802
O19	O	0.102400	0.227530	0.157720	-0.647802
O20	O	0.045700	0.103100	0.242210	-0.647802
O21	O	0.112700	0.869300	0.178090	-0.489349
O22	O	0.948500	0.012070	0.076420	-0.489349
O23	O	0.078100	0.801450	0.016930	-0.647802
O24	O	0.321300	0.856900	0.043370	-0.647802
