data_COXQUB_clean_PM
_symmetry_space_group_name_H-M	'P1'
_cell_length_a	9.755400
_cell_length_b	13.243000
_cell_length_c	13.595600
_cell_angle_alpha	118.303001
_cell_angle_beta	90.000000
_cell_angle_gamma	111.611999
_symmetry_Int_Tables_number 1

loop_
_symmetry_equiv_pos_as_xyz
'x,y,z'

loop_
_atom_site_label
_atom_site_type_symbol
_atom_site_fract_x
_atom_site_fract_y
_atom_site_fract_z
_atom_site_charge
Cd1	Cd	0.323180	0.512960	0.856450	1.077065
Cd2	Cd	0.818970	0.491820	0.602720	1.077065
Cd3	Cd	0.810220	0.487040	0.143550	1.077065
Cd4	Cd	0.327150	0.508180	0.397280	1.077065
H1	H	0.404000	0.806000	0.002900	0.084690
H2	H	0.596600	0.002200	0.111700	0.131604
H3	H	0.890700	0.841200	0.059200	0.131604
H4	H	0.682600	0.644000	0.957200	0.084690
H5	H	0.770000	0.177200	0.205300	0.131604
H6	H	0.970800	0.373600	0.297500	0.084690
H7	H	0.259600	0.220000	0.239200	0.084690
H8	H	0.066200	0.018200	0.136800	0.131604
H9	H	0.953400	0.374000	0.785000	0.084690
H10	H	0.755700	0.177600	0.695100	0.131604
H11	H	0.058900	0.022200	0.635800	0.131604
H12	H	0.247800	0.224000	0.721500	0.084690
H13	H	0.690100	0.648400	0.459900	0.084690
H14	H	0.889700	0.848600	0.548200	0.131604
H15	H	0.583100	0.996800	0.640300	0.131604
H16	H	0.392700	0.792800	0.549900	0.084690
H17	H	0.598000	0.194000	0.997100	0.084690
H18	H	0.594400	0.997800	0.888300	0.131604
H19	H	0.049500	0.158800	0.940800	0.131604
H20	H	0.038600	0.356000	0.042800	0.084690
H21	H	0.592800	0.822800	0.794700	0.131604
H22	H	0.597200	0.626400	0.702500	0.084690
H23	H	0.039600	0.780000	0.760800	0.084690
H24	H	0.048000	0.981800	0.863200	0.131604
H25	H	0.579400	0.626000	0.215000	0.084690
H26	H	0.578100	0.822400	0.304900	0.131604
H27	H	0.036700	0.977800	0.364200	0.131604
H28	H	0.023800	0.776000	0.278500	0.084690
H29	H	0.041700	0.351600	0.540100	0.084690
H30	H	0.041100	0.151400	0.451800	0.131604
H31	H	0.586300	0.003200	0.359700	0.131604
H32	H	0.599900	0.207200	0.450100	0.084690
C1	C	0.503200	0.812400	0.014600	0.192521
C2	C	0.619400	0.931000	0.079300	-0.196927
C3	C	0.764900	0.945200	0.098300	0.096880
C4	C	0.790700	0.836800	0.049600	-0.196927
C5	C	0.666200	0.718400	0.987500	0.192521
C6	C	0.892600	0.074800	0.161100	0.096880
C7	C	0.869300	0.183200	0.210100	-0.196927
C8	C	0.990400	0.300400	0.267000	0.192521
C9	C	0.158100	0.210800	0.231500	0.192521
C10	C	0.044000	0.090400	0.171100	-0.196927
C11	C	0.974900	0.301800	0.753300	0.192521
C12	C	0.856100	0.184400	0.702100	-0.196927
C13	C	0.883300	0.076200	0.659900	0.096880
C14	C	0.034600	0.093000	0.666500	-0.196927
C15	C	0.146100	0.214200	0.717700	0.192521
C16	C	0.668200	0.720200	0.496800	0.192521
C17	C	0.787900	0.840000	0.549900	-0.196927
C18	C	0.757800	0.947000	0.604400	0.096880
C19	C	0.608800	0.927200	0.604000	-0.196927
C20	C	0.494600	0.804200	0.549300	0.192521
C21	C	0.690800	0.187600	0.985400	0.192521
C22	C	0.688400	0.069000	0.920700	-0.196927
C23	C	0.819700	0.054800	0.901700	0.096880
C24	C	0.953900	0.163200	0.950400	-0.196927
C25	C	0.947800	0.281600	0.012500	0.192521
C26	C	0.817800	0.925200	0.838900	0.096880
C27	C	0.686100	0.816800	0.789900	-0.196927
C28	C	0.690000	0.699600	0.733000	0.192521
C29	C	0.947300	0.789200	0.768500	0.192521
C30	C	0.953600	0.909600	0.828900	-0.196927
C31	C	0.673100	0.698200	0.246700	0.192521
C32	C	0.671700	0.815600	0.297900	-0.196927
C33	C	0.807100	0.923800	0.340100	0.096880
C34	C	0.941600	0.907000	0.333500	-0.196927
C35	C	0.931900	0.785800	0.282300	0.192521
C36	C	0.948000	0.279800	0.503200	0.192521
C37	C	0.947900	0.160000	0.450100	-0.196927
C38	C	0.810800	0.053000	0.395600	0.096880
C39	C	0.681600	0.072800	0.396000	-0.196927
C40	C	0.690400	0.195800	0.450700	0.192521
S1	S	0.222680	0.616960	0.688400	1.671367
S2	S	0.577140	0.370880	0.723200	1.671367
S3	S	0.605720	0.383040	0.311600	1.671367
S4	S	0.206260	0.629120	0.276800	1.671367
N1	N	0.525000	0.706800	0.968800	-0.380178
N2	N	0.133500	0.315400	0.280200	-0.380178
N3	N	0.122100	0.319000	0.761900	-0.380178
N4	N	0.524100	0.701400	0.495500	-0.380178
N5	N	0.818200	0.293200	0.031200	-0.380178
N6	N	0.818100	0.684600	0.719800	-0.380178
N7	N	0.803100	0.681000	0.238100	-0.380178
N8	N	0.822700	0.298600	0.504500	-0.380178
O1	O	0.298300	0.544800	0.705100	-0.774287
O2	O	0.306400	0.751600	0.766200	-0.740408
O3	O	0.067400	0.573200	0.710000	-0.774287
O4	O	0.211300	0.585600	0.568900	-0.740408
O5	O	0.573800	0.401000	0.631500	-0.774287
O6	O	0.508900	0.234600	0.670800	-0.740408
O7	O	0.735700	0.429200	0.776200	-0.740408
O8	O	0.495300	0.428000	0.805400	-0.774287
O9	O	0.753500	0.455200	0.294900	-0.774287
O10	O	0.554800	0.248400	0.233800	-0.740408
O11	O	0.494200	0.426800	0.290000	-0.774287
O12	O	0.625700	0.414400	0.431100	-0.740408
O13	O	0.172800	0.599000	0.368500	-0.774287
O14	O	0.274300	0.765400	0.329200	-0.740408
O15	O	0.306500	0.570800	0.223800	-0.740408
O16	O	0.067300	0.572000	0.194600	-0.774287
