data_CUNWEO_clean_PM
_symmetry_space_group_name_H-M	'P1'
_cell_length_a	8.393000
_cell_length_b	18.742100
_cell_length_c	22.235100
_cell_angle_alpha	90.000000
_cell_angle_beta	90.000000
_cell_angle_gamma	94.030999
_symmetry_Int_Tables_number 1

loop_
_symmetry_equiv_pos_as_xyz
'x,y,z'

loop_
_atom_site_label
_atom_site_type_symbol
_atom_site_fract_x
_atom_site_fract_y
_atom_site_fract_z
_atom_site_charge
Cd1	Cd	0.684240	0.012880	0.443040	0.970712
Cd2	Cd	0.315760	0.487120	0.943040	0.970712
Cd3	Cd	0.315760	0.987120	0.556960	0.970712
Cd4	Cd	0.684240	0.512880	0.056960	0.970712
H1	H	0.058000	0.167200	0.453300	0.105297
H2	H	0.999200	0.253400	0.380200	0.105343
H3	H	0.487300	0.142800	0.374200	0.106537
H4	H	0.415300	0.505100	0.158900	0.081505
H5	H	0.305500	0.433800	0.236000	0.151052
H6	H	0.549600	0.272200	0.167800	0.151052
H7	H	0.655500	0.351500	0.096400	0.081505
H8	H	0.132000	0.026000	0.305800	0.105297
H9	H	0.293700	0.068800	0.224200	0.105343
H10	H	0.797900	0.164800	0.264900	0.106537
H11	H	0.317600	0.319100	0.959900	0.081505
H12	H	0.252100	0.226700	0.026700	0.151052
H13	H	0.037100	0.369700	0.131400	0.151052
H14	H	0.109600	0.454700	0.061400	0.081505
H15	H	0.942000	0.332800	0.953300	0.105297
H16	H	0.000800	0.246600	0.880200	0.105343
H17	H	0.512700	0.357200	0.874200	0.106537
H18	H	0.584700	0.994900	0.658900	0.081505
H19	H	0.694500	0.066200	0.736000	0.151052
H20	H	0.450400	0.227800	0.667800	0.151052
H21	H	0.344500	0.148500	0.596400	0.081505
H22	H	0.868000	0.474000	0.805800	0.105297
H23	H	0.706300	0.431200	0.724200	0.105343
H24	H	0.202100	0.335200	0.764900	0.106537
H25	H	0.682400	0.180900	0.459900	0.081505
H26	H	0.747900	0.273300	0.526700	0.151052
H27	H	0.962900	0.130300	0.631400	0.151052
H28	H	0.890400	0.045300	0.561400	0.081505
H29	H	0.942000	0.832800	0.546700	0.105297
H30	H	0.000800	0.746600	0.619800	0.105343
H31	H	0.512700	0.857200	0.625800	0.106537
H32	H	0.584700	0.494900	0.841100	0.081505
H33	H	0.694500	0.566200	0.764000	0.151052
H34	H	0.450400	0.727800	0.832200	0.151052
H35	H	0.344500	0.648500	0.903600	0.081505
H36	H	0.868000	0.974000	0.694200	0.105297
H37	H	0.706300	0.931200	0.775800	0.105343
H38	H	0.202100	0.835200	0.735100	0.106537
H39	H	0.682400	0.680900	0.040100	0.081505
H40	H	0.747900	0.773300	0.973300	0.151052
H41	H	0.962900	0.630300	0.868600	0.151052
H42	H	0.890400	0.545300	0.938600	0.081505
H43	H	0.058000	0.667200	0.046700	0.105297
H44	H	0.999200	0.753400	0.119800	0.105343
H45	H	0.487300	0.642800	0.125800	0.106537
H46	H	0.415300	0.005100	0.341100	0.081505
H47	H	0.305500	0.933800	0.264000	0.151052
H48	H	0.549600	0.772200	0.332200	0.151052
H49	H	0.655500	0.851500	0.403600	0.081505
H50	H	0.132000	0.526000	0.194200	0.105297
H51	H	0.293700	0.568800	0.275800	0.105343
H52	H	0.797900	0.664800	0.235100	0.106537
H53	H	0.317600	0.819100	0.540100	0.081505
H54	H	0.252100	0.726700	0.473300	0.151052
H55	H	0.037100	0.869700	0.368600	0.151052
H56	H	0.109600	0.954700	0.438600	0.081505
C1	C	0.306400	0.090200	0.465800	0.649862
C2	C	0.275400	0.147000	0.419900	-0.143845
C3	C	0.132900	0.179800	0.422400	-0.057600
C4	C	0.098100	0.231700	0.379600	-0.087987
C5	C	0.211000	0.249700	0.337300	-0.055266
C6	C	0.353900	0.218000	0.336000	-0.086815
C7	C	0.389600	0.165300	0.376200	-0.013949
C8	C	0.451400	0.248300	0.285700	0.506707
C9	C	0.209900	0.301800	0.286500	0.501236
C10	C	0.443800	0.457000	0.161600	0.208712
C11	C	0.376400	0.415300	0.207600	-0.250972
C12	C	0.417700	0.344700	0.210100	0.266404
C13	C	0.521300	0.320400	0.167600	-0.250972
C14	C	0.582100	0.367900	0.124900	0.208712
C15	C	0.856800	0.064000	0.346700	0.649862
C16	C	0.953800	0.091400	0.293400	-0.143845
C17	C	0.097700	0.063300	0.281100	-0.057600
C18	C	0.195200	0.088500	0.233100	-0.087987
C19	C	0.139000	0.144100	0.199300	-0.055266
C20	C	0.994100	0.171200	0.211800	-0.086815
C21	C	0.898400	0.146100	0.257500	-0.013949
C22	C	0.216300	0.183300	0.148200	0.501236
C23	C	0.970400	0.229800	0.167500	0.506707
C24	C	0.262000	0.329300	0.995700	0.208712
C25	C	0.223700	0.273800	0.035200	-0.250972
C26	C	0.142500	0.288900	0.087900	0.266404
C27	C	0.097000	0.357800	0.097000	-0.250972
C28	C	0.141300	0.407600	0.054800	0.208712
C29	C	0.693600	0.409800	0.965800	0.649862
C30	C	0.724600	0.353000	0.919900	-0.143845
C31	C	0.867100	0.320200	0.922400	-0.057600
C32	C	0.901900	0.268300	0.879600	-0.087987
C33	C	0.789000	0.250300	0.837300	-0.055266
C34	C	0.646100	0.282000	0.836000	-0.086815
C35	C	0.610400	0.334700	0.876200	-0.013949
C36	C	0.548600	0.251700	0.785700	0.506707
C37	C	0.790100	0.198200	0.786500	0.501236
C38	C	0.556200	0.043000	0.661600	0.208712
C39	C	0.623600	0.084700	0.707600	-0.250972
C40	C	0.582300	0.155300	0.710100	0.266404
C41	C	0.478700	0.179600	0.667600	-0.250972
C42	C	0.417900	0.132100	0.624900	0.208712
C43	C	0.143200	0.436000	0.846700	0.649862
C44	C	0.046200	0.408600	0.793400	-0.143845
C45	C	0.902300	0.436700	0.781100	-0.057600
C46	C	0.804800	0.411500	0.733100	-0.087987
C47	C	0.861000	0.355900	0.699300	-0.055266
C48	C	0.005900	0.328800	0.711800	-0.086815
C49	C	0.101600	0.353900	0.757500	-0.013949
C50	C	0.783700	0.316700	0.648200	0.501236
C51	C	0.029600	0.270200	0.667500	0.506707
C52	C	0.738000	0.170700	0.495700	0.208712
C53	C	0.776300	0.226200	0.535200	-0.250972
C54	C	0.857500	0.211100	0.587900	0.266404
C55	C	0.903000	0.142200	0.597000	-0.250972
C56	C	0.858700	0.092400	0.554800	0.208712
C57	C	0.693600	0.909800	0.534200	0.649862
C58	C	0.724600	0.853000	0.580100	-0.143845
C59	C	0.867100	0.820200	0.577600	-0.057600
C60	C	0.901900	0.768300	0.620400	-0.087987
C61	C	0.789000	0.750300	0.662700	-0.055266
C62	C	0.646100	0.782000	0.664000	-0.086815
C63	C	0.610400	0.834700	0.623800	-0.013949
C64	C	0.548600	0.751700	0.714300	0.506707
C65	C	0.790100	0.698200	0.713500	0.501236
C66	C	0.556200	0.543000	0.838400	0.208712
C67	C	0.623600	0.584700	0.792400	-0.250972
C68	C	0.582300	0.655300	0.789900	0.266404
C69	C	0.478700	0.679600	0.832400	-0.250972
C70	C	0.417900	0.632100	0.875100	0.208712
C71	C	0.143200	0.936000	0.653300	0.649862
C72	C	0.046200	0.908600	0.706600	-0.143845
C73	C	0.902300	0.936700	0.718900	-0.057600
C74	C	0.804800	0.911500	0.766900	-0.087987
C75	C	0.861000	0.855900	0.800700	-0.055266
C76	C	0.005900	0.828800	0.788200	-0.086815
C77	C	0.101600	0.853900	0.742500	-0.013949
C78	C	0.783700	0.816700	0.851800	0.501236
C79	C	0.029600	0.770200	0.832500	0.506707
C80	C	0.738000	0.670700	0.004300	0.208712
C81	C	0.776300	0.726200	0.964800	-0.250972
C82	C	0.857500	0.711100	0.912100	0.266404
C83	C	0.903000	0.642200	0.903000	-0.250972
C84	C	0.858700	0.592400	0.945200	0.208712
C85	C	0.306400	0.590200	0.034200	0.649862
C86	C	0.275400	0.647000	0.080100	-0.143845
C87	C	0.132900	0.679800	0.077600	-0.057600
C88	C	0.098100	0.731700	0.120400	-0.087987
C89	C	0.211000	0.749700	0.162700	-0.055266
C90	C	0.353900	0.718000	0.164000	-0.086815
C91	C	0.389600	0.665300	0.123800	-0.013949
C92	C	0.451400	0.748300	0.214300	0.506707
C93	C	0.209900	0.801800	0.213500	0.501236
C94	C	0.443800	0.957000	0.338400	0.208712
C95	C	0.376400	0.915300	0.292400	-0.250972
C96	C	0.417700	0.844700	0.289900	0.266404
C97	C	0.521300	0.820400	0.332400	-0.250972
C98	C	0.582100	0.867900	0.375100	0.208712
C99	C	0.856800	0.564000	0.153300	0.649862
C100	C	0.953800	0.591400	0.206600	-0.143845
C101	C	0.097700	0.563300	0.218900	-0.057600
C102	C	0.195200	0.588500	0.266900	-0.087987
C103	C	0.139000	0.644100	0.300700	-0.055266
C104	C	0.994100	0.671200	0.288200	-0.086815
C105	C	0.898400	0.646100	0.242500	-0.013949
C106	C	0.216300	0.683300	0.351800	0.501236
C107	C	0.970400	0.729800	0.332500	0.506707
C108	C	0.262000	0.829300	0.504300	0.208712
C109	C	0.223700	0.773800	0.464800	-0.250972
C110	C	0.142500	0.788900	0.412100	0.266404
C111	C	0.097000	0.857800	0.403000	-0.250972
C112	C	0.141300	0.907600	0.445200	0.208712
N1	N	0.544500	0.435100	0.121300	-0.332189
N2	N	0.359100	0.299100	0.257200	-0.232637
N3	N	0.110200	0.235600	0.131800	-0.232637
N4	N	0.224600	0.397100	0.005300	-0.332189
N5	N	0.455500	0.064900	0.621300	-0.332189
N6	N	0.640900	0.200900	0.757200	-0.232637
N7	N	0.889800	0.264400	0.631800	-0.232637
N8	N	0.775400	0.102900	0.505300	-0.332189
N9	N	0.455500	0.564900	0.878700	-0.332189
N10	N	0.640900	0.700900	0.742800	-0.232637
N11	N	0.889800	0.764400	0.868200	-0.232637
N12	N	0.775400	0.602900	0.994700	-0.332189
N13	N	0.544500	0.935100	0.378700	-0.332189
N14	N	0.359100	0.799100	0.242800	-0.232637
N15	N	0.110200	0.735600	0.368200	-0.232637
N16	N	0.224600	0.897100	0.494700	-0.332189
O1	O	0.429400	0.056200	0.459850	-0.600097
O2	O	0.206700	0.078500	0.506700	-0.600097
O3	O	0.106300	0.338800	0.270200	-0.448426
O4	O	0.584900	0.235800	0.271300	-0.448426
O5	O	0.728100	0.091600	0.359220	-0.600097
O6	O	0.909700	0.013700	0.376900	-0.600097
O7	O	0.856000	0.263800	0.160500	-0.448426
O8	O	0.342700	0.174600	0.124000	-0.448426
O9	O	0.570600	0.443800	0.959850	-0.600097
O10	O	0.793300	0.421500	0.006700	-0.600097
O11	O	0.893700	0.161200	0.770200	-0.448426
O12	O	0.415100	0.264200	0.771300	-0.448426
O13	O	0.271900	0.408400	0.859220	-0.600097
O14	O	0.090300	0.486300	0.876900	-0.600097
O15	O	0.144000	0.236200	0.660500	-0.448426
O16	O	0.657300	0.325400	0.624000	-0.448426
O17	O	0.570600	0.943800	0.540150	-0.600097
O18	O	0.793300	0.921500	0.493300	-0.600097
O19	O	0.893700	0.661200	0.729800	-0.448426
O20	O	0.415100	0.764200	0.728700	-0.448426
O21	O	0.271900	0.908400	0.640780	-0.600097
O22	O	0.090300	0.986300	0.623100	-0.600097
O23	O	0.144000	0.736200	0.839500	-0.448426
O24	O	0.657300	0.825400	0.876000	-0.448426
O25	O	0.429400	0.556200	0.040150	-0.600097
O26	O	0.206700	0.578500	0.993300	-0.600097
O27	O	0.106300	0.838800	0.229800	-0.448426
O28	O	0.584900	0.735800	0.228700	-0.448426
O29	O	0.728100	0.591600	0.140780	-0.600097
O30	O	0.909700	0.513700	0.123100	-0.600097
O31	O	0.856000	0.763800	0.339500	-0.448426
O32	O	0.342700	0.674600	0.376000	-0.448426
