data_DARDOR_clean_PM
_symmetry_space_group_name_H-M	'P1'
_cell_length_a	10.497000
_cell_length_b	14.528000
_cell_length_c	23.649500
_cell_angle_alpha	107.785998
_cell_angle_beta	90.000000
_cell_angle_gamma	90.000000
_symmetry_Int_Tables_number 1

loop_
_symmetry_equiv_pos_as_xyz
'x,y,z'

loop_
_atom_site_label
_atom_site_type_symbol
_atom_site_fract_x
_atom_site_fract_y
_atom_site_fract_z
_atom_site_charge
Gd1	Gd	0.580020	0.424550	0.774090	2.174073
Gd2	Gd	0.580020	0.075450	0.725910	2.174073
Gd3	Gd	0.419980	0.575450	0.225910	2.174073
Gd4	Gd	0.419980	0.924550	0.274090	2.174073
P1	P	0.376930	0.892770	0.620360	1.061916
P2	P	0.376930	0.607230	0.879640	1.061916
P3	P	0.623070	0.107230	0.379640	1.061916
P4	P	0.623070	0.392770	0.120360	1.061916
H1	H	0.607600	0.807800	0.641000	0.094291
H2	H	0.663600	0.682100	0.675800	0.110501
H3	H	0.296000	0.622600	0.693000	0.110501
H4	H	0.236000	0.749200	0.657900	0.094291
H5	H	0.132600	0.839600	0.562800	0.094291
H6	H	0.923200	0.888100	0.588400	0.110501
H7	H	0.046100	0.066200	0.744700	0.110501
H8	H	0.253300	0.018200	0.718900	0.094291
H9	H	0.368500	0.982200	0.530000	0.094291
H10	H	0.366900	0.931600	0.428000	0.110501
H11	H	0.406900	0.657400	0.427500	0.110501
H12	H	0.406400	0.707500	0.529900	0.094291
H13	H	0.607600	0.692200	0.859000	0.094291
H14	H	0.663600	0.817900	0.824200	0.110501
H15	H	0.296000	0.877400	0.807000	0.110501
H16	H	0.236000	0.750800	0.842100	0.094291
H17	H	0.132600	0.660400	0.937200	0.094291
H18	H	0.923200	0.611900	0.911600	0.110501
H19	H	0.046100	0.433800	0.755300	0.110501
H20	H	0.253300	0.481800	0.781100	0.094291
H21	H	0.368500	0.517800	0.970000	0.094291
H22	H	0.366900	0.568400	0.072000	0.110501
H23	H	0.406900	0.842600	0.072500	0.110501
H24	H	0.406400	0.792500	0.970100	0.094291
H25	H	0.392400	0.192200	0.359000	0.094291
H26	H	0.336400	0.317900	0.324200	0.110501
H27	H	0.704000	0.377400	0.307000	0.110501
H28	H	0.764000	0.250800	0.342100	0.094291
H29	H	0.867400	0.160400	0.437200	0.094291
H30	H	0.076800	0.111900	0.411600	0.110501
H31	H	0.953900	0.933800	0.255300	0.110501
H32	H	0.746700	0.981800	0.281100	0.094291
H33	H	0.631500	0.017800	0.470000	0.094291
H34	H	0.633100	0.068400	0.572000	0.110501
H35	H	0.593100	0.342600	0.572500	0.110501
H36	H	0.593600	0.292500	0.470100	0.094291
H37	H	0.392400	0.307800	0.141000	0.094291
H38	H	0.336400	0.182100	0.175800	0.110501
H39	H	0.704000	0.122600	0.193000	0.110501
H40	H	0.764000	0.249200	0.157900	0.094291
H41	H	0.867400	0.339600	0.062800	0.094291
H42	H	0.076800	0.388100	0.088400	0.110501
H43	H	0.953900	0.566200	0.244700	0.110501
H44	H	0.746700	0.518200	0.218900	0.094291
H45	H	0.631500	0.482200	0.030000	0.094291
H46	H	0.633100	0.431600	0.928000	0.110501
H47	H	0.593100	0.157400	0.927500	0.110501
H48	H	0.593600	0.207500	0.029900	0.094291
H49	H	0.263000	0.250000	0.750000	0.024868
H50	H	0.737000	0.750000	0.250000	0.024868
C1	C	0.415900	0.792500	0.646500	-0.283038
C2	C	0.544800	0.771120	0.651620	-0.012253
C3	C	0.577900	0.695900	0.672400	-0.054917
C4	C	0.485200	0.640000	0.688500	-0.094667
C5	C	0.358300	0.660220	0.682720	-0.054917
C6	C	0.321800	0.736110	0.661710	-0.012253
C7	C	0.519400	0.562150	0.714650	0.735223
C8	C	0.212900	0.924240	0.637940	-0.283038
C9	C	0.115000	0.885200	0.599100	-0.012253
C10	C	0.989400	0.914400	0.614500	-0.054917
C11	C	0.963300	0.983280	0.669180	-0.094667
C12	C	0.063100	0.021060	0.708060	-0.054917
C13	C	0.187100	0.992330	0.692730	-0.012253
C14	C	0.830000	0.014910	0.686410	0.735223
C15	C	0.385500	0.850100	0.541100	-0.283038
C16	C	0.375100	0.916600	0.509500	-0.012253
C17	C	0.374400	0.886470	0.448470	-0.054917
C18	C	0.384800	0.788850	0.417350	-0.094667
C19	C	0.397900	0.722630	0.448130	-0.054917
C20	C	0.398000	0.752760	0.509560	-0.012253
C21	C	0.380000	0.754480	0.350580	0.735223
C22	C	0.415900	0.707500	0.853500	-0.283038
C23	C	0.544800	0.728880	0.848380	-0.012253
C24	C	0.577900	0.804100	0.827600	-0.054917
C25	C	0.485200	0.860000	0.811500	-0.094667
C26	C	0.358300	0.839780	0.817280	-0.054917
C27	C	0.321800	0.763890	0.838290	-0.012253
C28	C	0.519400	0.937850	0.785350	0.735223
C29	C	0.212900	0.575760	0.862060	-0.283038
C30	C	0.115000	0.614800	0.900900	-0.012253
C31	C	0.989400	0.585600	0.885500	-0.054917
C32	C	0.963300	0.516720	0.830820	-0.094667
C33	C	0.063100	0.478940	0.791940	-0.054917
C34	C	0.187100	0.507670	0.807270	-0.012253
C35	C	0.830000	0.485090	0.813590	0.735223
C36	C	0.385500	0.649900	0.958900	-0.283038
C37	C	0.375100	0.583400	0.990500	-0.012253
C38	C	0.374400	0.613530	0.051530	-0.054917
C39	C	0.384800	0.711150	0.082650	-0.094667
C40	C	0.397900	0.777370	0.051870	-0.054917
C41	C	0.398000	0.747240	0.990440	-0.012253
C42	C	0.380000	0.745520	0.149420	0.735223
C43	C	0.584100	0.207500	0.353500	-0.283038
C44	C	0.455200	0.228880	0.348380	-0.012253
C45	C	0.422100	0.304100	0.327600	-0.054917
C46	C	0.514800	0.360000	0.311500	-0.094667
C47	C	0.641700	0.339780	0.317280	-0.054917
C48	C	0.678200	0.263890	0.338290	-0.012253
C49	C	0.480600	0.437850	0.285350	0.735223
C50	C	0.787100	0.075760	0.362060	-0.283038
C51	C	0.885000	0.114800	0.400900	-0.012253
C52	C	0.010600	0.085600	0.385500	-0.054917
C53	C	0.036700	0.016720	0.330820	-0.094667
C54	C	0.936900	0.978940	0.291940	-0.054917
C55	C	0.812900	0.007670	0.307270	-0.012253
C56	C	0.170000	0.985090	0.313590	0.735223
C57	C	0.614500	0.149900	0.458900	-0.283038
C58	C	0.624900	0.083400	0.490500	-0.012253
C59	C	0.625600	0.113530	0.551530	-0.054917
C60	C	0.615200	0.211150	0.582650	-0.094667
C61	C	0.602100	0.277370	0.551870	-0.054917
C62	C	0.602000	0.247240	0.490440	-0.012253
C63	C	0.620000	0.245520	0.649420	0.735223
C64	C	0.584100	0.292500	0.146500	-0.283038
C65	C	0.455200	0.271120	0.151620	-0.012253
C66	C	0.422100	0.195900	0.172400	-0.054917
C67	C	0.514800	0.140000	0.188500	-0.094667
C68	C	0.641700	0.160220	0.182720	-0.054917
C69	C	0.678200	0.236110	0.161710	-0.012253
C70	C	0.480600	0.062150	0.214650	0.735223
C71	C	0.787100	0.424240	0.137940	-0.283038
C72	C	0.885000	0.385200	0.099100	-0.012253
C73	C	0.010600	0.414400	0.114500	-0.054917
C74	C	0.036700	0.483280	0.169180	-0.094667
C75	C	0.936900	0.521060	0.208060	-0.054917
C76	C	0.812900	0.492330	0.192730	-0.012253
C77	C	0.170000	0.514910	0.186410	0.735223
C78	C	0.614500	0.350100	0.041100	-0.283038
C79	C	0.624900	0.416600	0.009500	-0.012253
C80	C	0.625600	0.386470	0.948470	-0.054917
C81	C	0.615200	0.288850	0.917350	-0.094667
C82	C	0.602100	0.222630	0.948130	-0.054917
C83	C	0.602000	0.252760	0.009560	-0.012253
C84	C	0.620000	0.254480	0.850580	0.735223
C85	C	0.351600	0.250000	0.750000	0.720912
C86	C	0.648400	0.750000	0.250000	0.720912
O1	O	0.634100	0.555550	0.731520	-0.666094
O2	O	0.435300	0.505010	0.721670	-0.666094
O3	O	0.737300	0.975120	0.654120	-0.666094
O4	O	0.810100	0.083240	0.734360	-0.666094
O5	O	0.372000	0.816890	0.324110	-0.666094
O6	O	0.381000	0.665050	0.325350	-0.666094
O7	O	0.463300	0.977780	0.646200	-0.830935
O8	O	0.397100	0.329570	0.756870	-0.679674
O9	O	0.634100	0.944450	0.768480	-0.666094
O10	O	0.435300	0.994990	0.778330	-0.666094
O11	O	0.737300	0.524880	0.845880	-0.666094
O12	O	0.810100	0.416760	0.765640	-0.666094
O13	O	0.372000	0.683110	0.175890	-0.666094
O14	O	0.381000	0.834950	0.174650	-0.666094
O15	O	0.463300	0.522220	0.853800	-0.830935
O16	O	0.397100	0.170430	0.743130	-0.679674
O17	O	0.365900	0.444450	0.268480	-0.666094
O18	O	0.564700	0.494990	0.278330	-0.666094
O19	O	0.262700	0.024880	0.345880	-0.666094
O20	O	0.189900	0.916760	0.265640	-0.666094
O21	O	0.628000	0.183110	0.675890	-0.666094
O22	O	0.619000	0.334950	0.674650	-0.666094
O23	O	0.536700	0.022220	0.353800	-0.830935
O24	O	0.602900	0.670430	0.243130	-0.679674
O25	O	0.365900	0.055550	0.231520	-0.666094
O26	O	0.564700	0.005010	0.221670	-0.666094
O27	O	0.262700	0.475120	0.154120	-0.666094
O28	O	0.189900	0.583240	0.234360	-0.666094
O29	O	0.628000	0.316890	0.824110	-0.666094
O30	O	0.619000	0.165050	0.825350	-0.666094
O31	O	0.536700	0.477780	0.146200	-0.830935
O32	O	0.602900	0.829570	0.256870	-0.679674
