data_DARFOT_clean_PM
_symmetry_space_group_name_H-M	'P1'
_cell_length_a	10.457700
_cell_length_b	14.401400
_cell_length_c	23.352400
_cell_angle_alpha	107.371000
_cell_angle_beta	90.000000
_cell_angle_gamma	90.000000
_symmetry_Int_Tables_number 1

loop_
_symmetry_equiv_pos_as_xyz
'x,y,z'

loop_
_atom_site_label
_atom_site_type_symbol
_atom_site_fract_x
_atom_site_fract_y
_atom_site_fract_z
_atom_site_charge
Tm1	Tm	0.930610	0.848100	0.772840	2.159175
Tm2	Tm	0.930610	0.151900	0.727160	2.159175
Tm3	Tm	0.069390	0.151900	0.227160	2.159175
Tm4	Tm	0.069390	0.848100	0.272840	2.159175
P1	P	0.866380	0.771540	0.377510	1.045888
P2	P	0.866380	0.228460	0.122490	1.045888
P3	P	0.133620	0.228460	0.622490	1.045888
P4	P	0.133620	0.771540	0.877510	1.045888
H1	H	0.889900	0.678600	0.471500	0.090358
H2	H	0.899300	0.733400	0.574100	0.106725
H3	H	0.867000	0.008300	0.570600	0.106725
H4	H	0.869500	0.954600	0.467100	0.090358
H5	H	0.620400	0.768900	0.434400	0.090358
H6	H	0.411500	0.793200	0.409100	0.106725
H7	H	0.532900	0.823100	0.251900	0.106725
H8	H	0.739700	0.798500	0.277800	0.090358
H9	H	0.097700	0.666100	0.358700	0.090358
H10	H	0.154200	0.498500	0.319900	0.106725
H11	H	0.782200	0.427100	0.308100	0.106725
H12	H	0.726000	0.590100	0.344600	0.090358
H13	H	0.889900	0.321400	0.028500	0.090358
H14	H	0.899300	0.266600	0.925900	0.106725
H15	H	0.867000	0.991700	0.929400	0.106725
H16	H	0.869500	0.045400	0.032900	0.090358
H17	H	0.620400	0.231100	0.065600	0.090358
H18	H	0.411500	0.206800	0.090900	0.106725
H19	H	0.532900	0.176900	0.248100	0.106725
H20	H	0.739700	0.201500	0.222200	0.090358
H21	H	0.097700	0.333900	0.141300	0.090358
H22	H	0.154200	0.501500	0.180100	0.106725
H23	H	0.782200	0.572900	0.191900	0.106725
H24	H	0.726000	0.409900	0.155400	0.090358
H25	H	0.110100	0.321400	0.528500	0.090358
H26	H	0.100700	0.266600	0.425900	0.106725
H27	H	0.133000	0.991700	0.429400	0.106725
H28	H	0.130500	0.045400	0.532900	0.090358
H29	H	0.379600	0.231100	0.565600	0.090358
H30	H	0.588500	0.206800	0.590900	0.106725
H31	H	0.467100	0.176900	0.748100	0.106725
H32	H	0.260300	0.201500	0.722200	0.090358
H33	H	0.902300	0.333900	0.641300	0.090358
H34	H	0.845800	0.501500	0.680100	0.106725
H35	H	0.217800	0.572900	0.691900	0.106725
H36	H	0.274000	0.409900	0.655400	0.090358
H37	H	0.110100	0.678600	0.971500	0.090358
H38	H	0.100700	0.733400	0.074100	0.106725
H39	H	0.133000	0.008300	0.070600	0.106725
H40	H	0.130500	0.954600	0.967100	0.090358
H41	H	0.379600	0.768900	0.934400	0.090358
H42	H	0.588500	0.793200	0.909100	0.106725
H43	H	0.467100	0.823100	0.751900	0.106725
H44	H	0.260300	0.798500	0.777800	0.090358
H45	H	0.902300	0.666100	0.858700	0.090358
H46	H	0.845800	0.498500	0.819900	0.106725
H47	H	0.217800	0.427100	0.808100	0.106725
H48	H	0.274000	0.590100	0.844600	0.090358
H49	H	0.245200	0.000000	0.750000	0.014402
H50	H	0.754800	0.000000	0.250000	0.014402
C1	C	0.875000	0.809800	0.457500	-0.287542
C2	C	0.886000	0.745000	0.491000	-0.019389
C3	C	0.891100	0.777800	0.552400	-0.067766
C4	C	0.884200	0.875700	0.582400	-0.089096
C5	C	0.873400	0.942100	0.550500	-0.067766
C6	C	0.872200	0.909600	0.488600	-0.019389
C7	C	0.888400	0.909900	0.650000	0.700147
C8	C	0.701300	0.784900	0.358900	-0.287542
C9	C	0.602600	0.780700	0.398200	-0.019389
C10	C	0.477300	0.794400	0.382600	-0.067766
C11	C	0.448800	0.809700	0.328500	-0.089096
C12	C	0.550000	0.812300	0.288500	-0.067766
C13	C	0.673500	0.798600	0.304500	-0.019389
C14	C	0.313300	0.825800	0.310400	0.700147
C15	C	0.904400	0.644800	0.353000	-0.287542
C16	C	0.034600	0.618600	0.347800	-0.019389
C17	C	0.068900	0.517200	0.325400	-0.067766
C18	C	0.974000	0.449400	0.312500	-0.089096
C19	C	0.845100	0.474900	0.318300	-0.067766
C20	C	0.811900	0.572800	0.339500	-0.019389
C21	C	0.009200	0.343600	0.287900	0.700147
C22	C	0.875000	0.190200	0.042500	-0.287542
C23	C	0.886000	0.255000	0.009000	-0.019389
C24	C	0.891100	0.222200	0.947600	-0.067766
C25	C	0.884200	0.124300	0.917600	-0.089096
C26	C	0.873400	0.057900	0.949500	-0.067766
C27	C	0.872200	0.090400	0.011400	-0.019389
C28	C	0.888400	0.090100	0.850000	0.700147
C29	C	0.701300	0.215100	0.141100	-0.287542
C30	C	0.602600	0.219300	0.101800	-0.019389
C31	C	0.477300	0.205600	0.117400	-0.067766
C32	C	0.448800	0.190300	0.171500	-0.089096
C33	C	0.550000	0.187700	0.211500	-0.067766
C34	C	0.673500	0.201400	0.195500	-0.019389
C35	C	0.313300	0.174200	0.189600	0.700147
C36	C	0.904400	0.355200	0.147000	-0.287542
C37	C	0.034600	0.381400	0.152200	-0.019389
C38	C	0.068900	0.482800	0.174600	-0.067766
C39	C	0.974000	0.550600	0.187500	-0.089096
C40	C	0.845100	0.525100	0.181700	-0.067766
C41	C	0.811900	0.427200	0.160500	-0.019389
C42	C	0.009200	0.656400	0.212100	0.700147
C43	C	0.125000	0.190200	0.542500	-0.287542
C44	C	0.114000	0.255000	0.509000	-0.019389
C45	C	0.108900	0.222200	0.447600	-0.067766
C46	C	0.115800	0.124300	0.417600	-0.089096
C47	C	0.126600	0.057900	0.449500	-0.067766
C48	C	0.127800	0.090400	0.511400	-0.019389
C49	C	0.111600	0.090100	0.350000	0.700147
C50	C	0.298700	0.215100	0.641100	-0.287542
C51	C	0.397400	0.219300	0.601800	-0.019389
C52	C	0.522700	0.205600	0.617400	-0.067766
C53	C	0.551200	0.190300	0.671500	-0.089096
C54	C	0.450000	0.187700	0.711500	-0.067766
C55	C	0.326500	0.201400	0.695500	-0.019389
C56	C	0.686700	0.174200	0.689600	0.700147
C57	C	0.095600	0.355200	0.647000	-0.287542
C58	C	0.965400	0.381400	0.652200	-0.019389
C59	C	0.931100	0.482800	0.674600	-0.067766
C60	C	0.026000	0.550600	0.687500	-0.089096
C61	C	0.154900	0.525100	0.681700	-0.067766
C62	C	0.188100	0.427200	0.660500	-0.019389
C63	C	0.990800	0.656400	0.712100	0.700147
C64	C	0.125000	0.809800	0.957500	-0.287542
C65	C	0.114000	0.745000	0.991000	-0.019389
C66	C	0.108900	0.777800	0.052400	-0.067766
C67	C	0.115800	0.875700	0.082400	-0.089096
C68	C	0.126600	0.942100	0.050500	-0.067766
C69	C	0.127800	0.909600	0.988600	-0.019389
C70	C	0.111600	0.909900	0.150000	0.700147
C71	C	0.298700	0.784900	0.858900	-0.287542
C72	C	0.397400	0.780700	0.898200	-0.019389
C73	C	0.522700	0.794400	0.882600	-0.067766
C74	C	0.551200	0.809700	0.828500	-0.089096
C75	C	0.450000	0.812300	0.788500	-0.067766
C76	C	0.326500	0.798600	0.804500	-0.019389
C77	C	0.686700	0.825800	0.810400	0.700147
C78	C	0.095600	0.644800	0.853000	-0.287542
C79	C	0.965400	0.618600	0.847800	-0.019389
C80	C	0.931100	0.517200	0.825400	-0.067766
C81	C	0.026000	0.449400	0.812500	-0.089096
C82	C	0.154900	0.474900	0.818300	-0.067766
C83	C	0.188100	0.572800	0.839500	-0.019389
C84	C	0.990800	0.343600	0.787900	0.700147
C85	C	0.156200	0.000000	0.750000	0.711105
C86	C	0.843800	0.000000	0.250000	0.711105
O1	O	0.897300	0.846600	0.676200	-0.624112
O2	O	0.876700	0.000500	0.675600	-0.624112
O3	O	0.222300	0.814800	0.343600	-0.624112
O4	O	0.296800	0.847300	0.262200	-0.624112
O5	O	0.122800	0.320900	0.269700	-0.624112
O6	O	0.924200	0.280100	0.279600	-0.624112
O7	O	0.950900	0.832000	0.351200	-0.803540
O8	O	0.109400	0.928400	0.758900	-0.649692
O9	O	0.897300	0.153400	0.823800	-0.624112
O10	O	0.876700	0.999500	0.824400	-0.624112
O11	O	0.222300	0.185200	0.156400	-0.624112
O12	O	0.296800	0.152700	0.237800	-0.624112
O13	O	0.122800	0.679100	0.230300	-0.624112
O14	O	0.924200	0.719900	0.220400	-0.624112
O15	O	0.950900	0.168000	0.148800	-0.803540
O16	O	0.109400	0.071600	0.741100	-0.649692
O17	O	0.102700	0.153400	0.323800	-0.624112
O18	O	0.123300	0.999500	0.324400	-0.624112
O19	O	0.777700	0.185200	0.656400	-0.624112
O20	O	0.703200	0.152700	0.737800	-0.624112
O21	O	0.877200	0.679100	0.730300	-0.624112
O22	O	0.075800	0.719900	0.720400	-0.624112
O23	O	0.049100	0.168000	0.648800	-0.803540
O24	O	0.890600	0.071600	0.241100	-0.649692
O25	O	0.102700	0.846600	0.176200	-0.624112
O26	O	0.123300	0.000500	0.175600	-0.624112
O27	O	0.777700	0.814800	0.843600	-0.624112
O28	O	0.703200	0.847300	0.762200	-0.624112
O29	O	0.877200	0.320900	0.769700	-0.624112
O30	O	0.075800	0.280100	0.779600	-0.624112
O31	O	0.049100	0.832000	0.851200	-0.803540
O32	O	0.890600	0.928400	0.258900	-0.649692
