data_DEHBIC_clean_PM
_symmetry_space_group_name_H-M	'P1'
_cell_length_a	6.026000
_cell_length_b	7.450000
_cell_length_c	13.287000
_cell_angle_alpha	102.740003
_cell_angle_beta	101.459995
_cell_angle_gamma	90.719997
_symmetry_Int_Tables_number 1

loop_
_symmetry_equiv_pos_as_xyz
'x,y,z'

loop_
_atom_site_label
_atom_site_type_symbol
_atom_site_fract_x
_atom_site_fract_y
_atom_site_fract_z
_atom_site_charge
Gd1	Gd	0.500090	0.509940	0.500020	2.140579
Gd2	Gd	0.464330	0.872690	0.140010	2.140579
H1	H	0.836200	0.793900	0.863200	0.098140
H2	H	0.126800	0.727200	0.763500	0.098140
H3	H	0.996400	0.374100	0.255600	0.114977
H4	H	0.014400	0.414300	0.090900	0.114977
H5	H	0.927200	0.091800	0.550200	0.114977
H6	H	0.961900	0.938900	0.384700	0.114977
H7	H	0.787400	0.619100	0.951700	0.374198
H8	H	0.247800	0.469000	0.741900	0.374198
H9	H	0.284000	0.660000	0.333000	0.402021
H10	H	0.320000	0.465000	0.073000	0.402021
H11	H	0.590000	0.165000	0.561000	0.402021
H12	H	0.700000	0.168000	0.317000	0.402021
C1	C	0.708000	0.612000	0.723400	0.619138
C2	C	0.862500	0.666300	0.831300	0.062307
C3	C	0.110400	0.659600	0.817300	0.062307
C4	C	0.268400	0.755400	0.921100	0.619138
C5	C	0.325100	0.302600	0.249400	0.714959
C6	C	0.136800	0.439400	0.253200	0.041953
C7	C	0.100100	0.510300	0.148800	0.041953
C8	C	0.971100	0.688200	0.156400	0.714959
C9	C	0.987900	0.317700	0.490500	0.714959
C10	C	0.850200	0.146000	0.492700	0.041953
C11	C	0.820100	0.001300	0.386600	0.041953
C12	C	0.634200	0.859600	0.386900	0.714959
O1	O	0.559800	0.477400	0.698500	-0.652186
O2	O	0.731300	0.708900	0.660300	-0.652186
O3	O	0.832400	0.556300	0.901600	-0.528862
O4	O	0.156600	0.474100	0.780600	-0.528862
O5	O	0.437000	0.673900	0.959800	-0.652186
O6	O	0.225900	0.910000	0.968800	-0.652186
O7	O	0.300100	0.165600	0.174700	-0.683859
O8	O	0.493300	0.341500	0.326800	-0.683859
O9	O	0.196500	0.586300	0.346100	-0.636757
O10	O	0.315400	0.546400	0.126300	-0.636757
O11	O	0.077800	0.829900	0.150300	-0.683859
O12	O	0.766300	0.677100	0.162100	-0.683859
O13	O	0.889400	0.461300	0.492600	-0.683859
O14	O	0.194200	0.298800	0.489100	-0.683859
O15	O	0.632100	0.202600	0.511600	-0.636757
O16	O	0.763200	0.072700	0.296000	-0.636757
O17	O	0.461400	0.833900	0.312300	-0.683859
O18	O	0.663300	0.772200	0.461100	-0.683859
