data_DEYDOA_clean_PM
_symmetry_space_group_name_H-M	'P1'
_cell_length_a	7.199000
_cell_length_b	7.569000
_cell_length_c	9.541000
_cell_angle_alpha	90.000000
_cell_angle_beta	100.299999
_cell_angle_gamma	90.000000
_symmetry_Int_Tables_number 1

loop_
_symmetry_equiv_pos_as_xyz
'x,y,z'

loop_
_atom_site_label
_atom_site_type_symbol
_atom_site_fract_x
_atom_site_fract_y
_atom_site_fract_z
_atom_site_charge
Cd1	Cd	0.000000	0.000000	0.000000	0.923508
Ni1	Ni	0.500000	0.500000	0.000000	-0.043542
H1	H	0.008140	0.116100	0.284220	0.289264
H2	H	0.669970	0.116100	0.201550	0.061219
H3	H	0.791000	0.116100	0.458350	0.085066
H4	H	0.445350	0.116100	0.371770	0.074112
H5	H	0.991860	0.116100	0.715780	0.289264
H6	H	0.330030	0.116100	0.798450	0.061219
H7	H	0.209000	0.116100	0.541650	0.085066
H8	H	0.554650	0.116100	0.628230	0.074112
H9	H	0.991860	0.883900	0.715780	0.289264
H10	H	0.330030	0.883900	0.798450	0.061219
H11	H	0.209000	0.883900	0.541650	0.085066
H12	H	0.554650	0.883900	0.628230	0.074112
H13	H	0.008140	0.883900	0.284220	0.289264
H14	H	0.669970	0.883900	0.201550	0.061219
H15	H	0.791000	0.883900	0.458350	0.085066
H16	H	0.445350	0.883900	0.371770	0.074112
C1	C	0.665000	0.673200	0.958200	0.081239
C2	C	0.335000	0.673200	0.041800	0.081239
C3	C	0.335000	0.326800	0.041800	0.081239
C4	C	0.665000	0.326800	0.958200	0.081239
C5	C	0.740500	0.000000	0.252300	0.091376
C6	C	0.721400	0.000000	0.406800	-0.181282
C7	C	0.514000	0.000000	0.424200	-0.102148
C8	C	0.259500	0.000000	0.747700	0.091376
C9	C	0.278600	0.000000	0.593200	-0.181282
C10	C	0.486000	0.000000	0.575800	-0.102148
N1	N	0.768700	0.778900	0.936400	-0.397784
N2	N	0.231300	0.778900	0.063600	-0.397784
N3	N	0.231300	0.221100	0.063600	-0.397784
N4	N	0.768700	0.221100	0.936400	-0.397784
N5	N	0.940600	0.000000	0.230800	-0.634165
N6	N	0.059400	0.000000	0.769200	-0.634165
