data_DOGZIJ_clean_PM
_symmetry_space_group_name_H-M	'P1'
_cell_length_a	8.473000
_cell_length_b	10.154000
_cell_length_c	13.397000
_cell_angle_alpha	68.210003
_cell_angle_beta	78.639998
_cell_angle_gamma	77.459999
_symmetry_Int_Tables_number 1

loop_
_symmetry_equiv_pos_as_xyz
'x,y,z'

loop_
_atom_site_label
_atom_site_type_symbol
_atom_site_fract_x
_atom_site_fract_y
_atom_site_fract_z
_atom_site_charge
Zn1	Zn	0.943370	0.435150	0.158220	0.934431
Zn2	Zn	0.056630	0.564850	0.841780	0.934431
H1	H	0.255200	0.252300	0.082500	0.100214
H2	H	0.461500	0.229100	0.323700	0.132923
H3	H	0.193000	0.373900	0.330600	0.118135
H4	H	0.638800	0.186400	0.114500	0.110991
H5	H	0.598000	0.050000	0.210900	0.110991
H6	H	0.433100	0.918700	0.269600	0.120365
H7	H	0.344500	0.811800	0.249800	0.120365
H8	H	0.532500	0.775500	0.256200	0.120365
H9	H	0.586300	0.321400	0.973000	0.120365
H10	H	0.692300	0.288800	0.872400	0.120365
H11	H	0.506500	0.351500	0.869000	0.120365
H12	H	0.923600	0.040000	0.163300	0.098632
H13	H	0.070400	0.185900	0.842800	0.098632
H14	H	0.752300	0.532600	0.518900	0.098632
H15	H	0.465800	0.457700	0.348900	0.098632
H16	H	0.744800	0.747700	0.917500	0.100214
H17	H	0.538500	0.770900	0.676300	0.132923
H18	H	0.807000	0.626100	0.669400	0.118135
H19	H	0.361200	0.813600	0.885500	0.110991
H20	H	0.402000	0.950000	0.789100	0.110991
H21	H	0.566900	0.081300	0.730400	0.120365
H22	H	0.655500	0.188200	0.750200	0.120365
H23	H	0.467500	0.224500	0.743800	0.120365
H24	H	0.413700	0.678600	0.027000	0.120365
H25	H	0.307700	0.711200	0.127600	0.120365
H26	H	0.493500	0.648500	0.131000	0.120365
H27	H	0.076400	0.960000	0.836700	0.098632
H28	H	0.929600	0.814100	0.157200	0.098632
H29	H	0.247700	0.467400	0.481100	0.098632
H30	H	0.534200	0.542300	0.651100	0.098632
C1	C	0.273500	0.266200	0.143800	0.143467
C2	C	0.387200	0.252200	0.274800	-0.160616
C3	C	0.238500	0.332100	0.278200	0.059186
C4	C	0.556600	0.126200	0.149600	-0.049632
C5	C	0.523000	0.062600	0.071050	-0.080138
C6	C	0.475900	0.927100	0.112220	0.053623
C7	C	0.545600	0.137300	0.959600	0.053623
C8	C	0.443500	0.851400	0.232900	-0.334956
C9	C	0.586500	0.288700	0.914300	-0.334956
C10	C	0.986500	0.281960	0.007540	0.696605
C11	C	0.993900	0.134840	0.004040	-0.150441
C12	C	0.953700	0.023680	0.097730	-0.072652
C13	C	0.041800	0.111400	0.905550	-0.072652
C14	C	0.772200	0.488400	0.333440	0.649976
C15	C	0.631500	0.493500	0.420350	-0.127224
C16	C	0.650900	0.519300	0.511000	-0.074727
C17	C	0.480100	0.474700	0.409890	-0.074727
C18	C	0.726500	0.733800	0.856200	0.143467
C19	C	0.612800	0.747800	0.725200	-0.160616
C20	C	0.761500	0.667900	0.721800	0.059186
C21	C	0.443400	0.873800	0.850400	-0.049632
C22	C	0.477000	0.937400	0.928950	-0.080138
C23	C	0.524100	0.072900	0.887780	0.053623
C24	C	0.454400	0.862700	0.040400	0.053623
C25	C	0.556500	0.148600	0.767100	-0.334956
C26	C	0.413500	0.711300	0.085700	-0.334956
C27	C	0.013500	0.718040	0.992460	0.696605
C28	C	0.006100	0.865160	0.995960	-0.150441
C29	C	0.046300	0.976320	0.902270	-0.072652
C30	C	0.958200	0.888600	0.094450	-0.072652
C31	C	0.227800	0.511600	0.666560	0.649976
C32	C	0.368500	0.506500	0.579650	-0.127224
C33	C	0.349100	0.480700	0.489000	-0.074727
C34	C	0.519900	0.525300	0.590110	-0.074727
N1	N	0.165700	0.342470	0.194890	-0.380769
N2	N	0.408300	0.212000	0.187630	0.071080
N3	N	0.834300	0.657530	0.805110	-0.380769
N4	N	0.591700	0.788000	0.812370	0.071080
O1	O	0.897130	0.312290	0.085650	-0.606734
O2	O	0.073410	0.363520	0.933830	-0.606734
O3	O	0.755450	0.428940	0.267840	-0.618428
O4	O	0.896000	0.538390	0.326940	-0.606574
O5	O	0.102870	0.687710	0.914350	-0.606734
O6	O	0.926590	0.636480	0.066170	-0.606734
O7	O	0.244550	0.571060	0.732160	-0.618428
O8	O	0.104000	0.461610	0.673060	-0.606574
