data_DOLXOR01_clean_PM
_symmetry_space_group_name_H-M	'P1'
_cell_length_a	9.436600
_cell_length_b	9.436600
_cell_length_c	16.424000
_cell_angle_alpha	88.504898
_cell_angle_beta	88.504898
_cell_angle_gamma	83.741603
_symmetry_Int_Tables_number 1

loop_
_symmetry_equiv_pos_as_xyz
'x,y,z'

loop_
_atom_site_label
_atom_site_type_symbol
_atom_site_fract_x
_atom_site_fract_y
_atom_site_fract_z
_atom_site_charge
Cu1	Cu	0.492240	0.136180	0.502560	0.497158
Cu2	Cu	0.863820	0.507760	0.997440	0.497158
Cu3	Cu	0.507760	0.863820	0.497440	0.497158
Cu4	Cu	0.136180	0.492240	0.002560	0.497158
Cu5	Cu	0.000000	0.000000	0.500000	0.490626
Cu6	Cu	0.000000	0.000000	0.000000	0.490626
Cu7	Cu	0.636620	0.363380	0.750000	0.084887
Cu8	Cu	0.363380	0.636620	0.250000	0.084887
Cu9	Cu	0.602200	0.397800	0.250000	0.084887
Cu10	Cu	0.397800	0.602200	0.750000	0.084887
C1	C	0.316600	0.040600	0.510800	0.087887
C2	C	0.571500	0.282900	0.661400	0.010002
C3	C	0.538000	0.306400	0.339900	0.010002
C4	C	0.959400	0.683400	0.989200	0.087887
C5	C	0.717100	0.428500	0.838600	0.010002
C6	C	0.693600	0.462000	0.160100	0.010002
C7	C	0.683400	0.959400	0.489200	0.087887
C8	C	0.428500	0.717100	0.338600	0.010002
C9	C	0.462000	0.693600	0.660100	0.010002
C10	C	0.040600	0.316600	0.010800	0.087887
C11	C	0.282900	0.571500	0.161400	0.010002
C12	C	0.306400	0.538000	0.839900	0.010002
N1	N	0.198900	0.025300	0.513400	-0.419438
N2	N	0.542200	0.229200	0.603400	-0.257905
N3	N	0.515800	0.244800	0.398300	-0.257905
N4	N	0.974700	0.801100	0.986600	-0.419438
N5	N	0.770800	0.457800	0.896600	-0.257905
N6	N	0.755200	0.484200	0.101700	-0.257905
N7	N	0.801100	0.974700	0.486600	-0.419438
N8	N	0.457800	0.770800	0.396600	-0.257905
N9	N	0.484200	0.755200	0.601700	-0.257905
N10	N	0.025300	0.198900	0.013400	-0.419438
N11	N	0.229200	0.542200	0.103400	-0.257905
N12	N	0.244800	0.515800	0.898300	-0.257905
