data_EBEWIT_clean_PM
_symmetry_space_group_name_H-M	'P1'
_cell_length_a	10.360400
_cell_length_b	10.360400
_cell_length_c	14.505900
_cell_angle_alpha	90.000000
_cell_angle_beta	90.000000
_cell_angle_gamma	90.000000
_symmetry_Int_Tables_number 1

loop_
_symmetry_equiv_pos_as_xyz
'x,y,z'

loop_
_atom_site_label
_atom_site_type_symbol
_atom_site_fract_x
_atom_site_fract_y
_atom_site_fract_z
_atom_site_charge
Gd1	Gd	0.145670	0.145670	0.375000	2.176598
Gd2	Gd	0.854330	0.854330	0.875000	2.176598
Gd3	Gd	0.854330	0.145670	0.625000	2.176598
Gd4	Gd	0.145670	0.854330	0.125000	2.176598
H1	H	0.069800	0.556600	0.371700	0.108012
H2	H	0.930200	0.443400	0.871700	0.108012
H3	H	0.443400	0.069800	0.621700	0.108012
H4	H	0.556600	0.930200	0.121700	0.108012
H5	H	0.930200	0.556600	0.628300	0.108012
H6	H	0.069800	0.443400	0.128300	0.108012
H7	H	0.556600	0.069800	0.378300	0.108012
H8	H	0.443400	0.930200	0.878300	0.108012
H9	H	0.000000	0.890400	0.500000	0.108012
H10	H	0.000000	0.109600	0.000000	0.108012
H11	H	0.109600	0.000000	0.750000	0.108012
H12	H	0.890400	0.000000	0.250000	0.108012
C1	C	0.082800	0.811000	0.339400	0.794547
C2	C	0.041200	0.602200	0.423000	0.039610
C3	C	0.039900	0.737500	0.422000	-0.179978
C4	C	0.917200	0.189000	0.839400	0.794547
C5	C	0.958800	0.397800	0.923000	0.039610
C6	C	0.960100	0.262500	0.922000	-0.179978
C7	C	0.189000	0.082800	0.589400	0.794547
C8	C	0.397800	0.041200	0.673000	0.039610
C9	C	0.262500	0.039900	0.672000	-0.179978
C10	C	0.811000	0.917200	0.089400	0.794547
C11	C	0.602200	0.958800	0.173000	0.039610
C12	C	0.737500	0.960100	0.172000	-0.179978
C13	C	0.917200	0.811000	0.660600	0.794547
C14	C	0.958800	0.602200	0.577000	0.039610
C15	C	0.960100	0.737500	0.578000	-0.179978
C16	C	0.082800	0.189000	0.160600	0.794547
C17	C	0.041200	0.397800	0.077000	0.039610
C18	C	0.039900	0.262500	0.078000	-0.179978
C19	C	0.811000	0.082800	0.410600	0.794547
C20	C	0.602200	0.041200	0.327000	0.039610
C21	C	0.737500	0.039900	0.328000	-0.179978
C22	C	0.189000	0.917200	0.910600	0.794547
C23	C	0.397800	0.958800	0.827000	0.039610
C24	C	0.262500	0.960100	0.828000	-0.179978
C25	C	0.000000	0.389300	0.500000	0.794547
C26	C	0.000000	0.537100	0.500000	-0.179978
C27	C	0.000000	0.800600	0.500000	0.039610
C28	C	0.000000	0.610700	0.000000	0.794547
C29	C	0.000000	0.462900	0.000000	-0.179978
C30	C	0.000000	0.199400	0.000000	0.039610
C31	C	0.610700	0.000000	0.750000	0.794547
C32	C	0.462900	0.000000	0.750000	-0.179978
C33	C	0.199400	0.000000	0.750000	0.039610
C34	C	0.389300	0.000000	0.250000	0.794547
C35	C	0.537100	0.000000	0.250000	-0.179978
C36	C	0.800600	0.000000	0.250000	0.039610
O1	O	0.069200	0.335500	0.441400	-0.743862
O2	O	0.089500	0.752500	0.263800	-0.743862
O3	O	0.106900	0.927600	0.345500	-0.743862
O4	O	0.930800	0.664500	0.941400	-0.743862
O5	O	0.910500	0.247500	0.763800	-0.743862
O6	O	0.893100	0.072400	0.845500	-0.743862
O7	O	0.664500	0.069200	0.691400	-0.743862
O8	O	0.247500	0.089500	0.513800	-0.743862
O9	O	0.072400	0.106900	0.595500	-0.743862
O10	O	0.335500	0.930800	0.191400	-0.743862
O11	O	0.752500	0.910500	0.013800	-0.743862
O12	O	0.927600	0.893100	0.095500	-0.743862
O13	O	0.930800	0.335500	0.558600	-0.743862
O14	O	0.910500	0.752500	0.736200	-0.743862
O15	O	0.893100	0.927600	0.654500	-0.743862
O16	O	0.069200	0.664500	0.058600	-0.743862
O17	O	0.089500	0.247500	0.236200	-0.743862
O18	O	0.106900	0.072400	0.154500	-0.743862
O19	O	0.335500	0.069200	0.308600	-0.743862
O20	O	0.752500	0.089500	0.486200	-0.743862
O21	O	0.927600	0.106900	0.404500	-0.743862
O22	O	0.664500	0.930800	0.808600	-0.743862
O23	O	0.247500	0.910500	0.986200	-0.743862
O24	O	0.072400	0.893100	0.904500	-0.743862
