data_ELAFUT_clean_PM
_symmetry_space_group_name_H-M	'P1'
_cell_length_a	8.424300
_cell_length_b	11.636800
_cell_length_c	15.709500
_cell_angle_alpha	95.494001
_cell_angle_beta	104.724998
_cell_angle_gamma	99.122000
_symmetry_Int_Tables_number 1

loop_
_symmetry_equiv_pos_as_xyz
'x,y,z'

loop_
_atom_site_label
_atom_site_type_symbol
_atom_site_fract_x
_atom_site_fract_y
_atom_site_fract_z
_atom_site_charge
Cd1	Cd	0.523260	0.550080	0.676170	1.171575
Cd2	Cd	0.476740	0.449920	0.323830	1.171575
Cd3	Cd	0.500000	0.500000	0.000000	1.171575
H1	H	0.971500	0.437100	0.570500	0.147745
H2	H	0.060500	0.572500	0.584900	0.147745
H3	H	0.868600	0.411200	0.811700	0.147745
H4	H	0.016600	0.450900	0.901900	0.147745
H5	H	0.977700	0.563200	0.745100	0.147745
H6	H	0.106800	0.625700	0.837600	0.147745
H7	H	0.487600	0.349400	0.800600	0.084237
H8	H	0.619900	0.333300	0.577500	0.084237
H9	H	0.647400	0.139900	0.582300	0.133385
H10	H	0.505800	0.155500	0.810400	0.133385
H11	H	0.655500	0.966400	0.585500	0.133385
H12	H	0.485500	0.972600	0.804300	0.133385
H13	H	0.632600	0.766100	0.580700	0.084237
H14	H	0.249200	0.057700	0.978700	0.133385
H15	H	0.751600	0.118300	0.015500	0.133385
H16	H	0.257200	0.255800	0.976300	0.084237
H17	H	0.744300	0.315400	0.012100	0.084237
H18	H	0.467000	0.771600	0.793300	0.084237
H19	H	0.028500	0.562900	0.429500	0.147745
H20	H	0.939500	0.427500	0.415100	0.147745
H21	H	0.131400	0.588800	0.188300	0.147745
H22	H	0.983400	0.549100	0.098100	0.147745
H23	H	0.022300	0.436800	0.254900	0.147745
H24	H	0.893200	0.374300	0.162400	0.147745
H25	H	0.512400	0.650600	0.199400	0.084237
H26	H	0.380100	0.666700	0.422500	0.084237
H27	H	0.352600	0.860100	0.417700	0.133385
H28	H	0.494200	0.844500	0.189600	0.133385
H29	H	0.344500	0.033600	0.414500	0.133385
H30	H	0.514500	0.027400	0.195700	0.133385
H31	H	0.367400	0.233900	0.419300	0.084237
H32	H	0.750800	0.942300	0.021300	0.133385
H33	H	0.248400	0.881700	0.984500	0.133385
H34	H	0.742800	0.744200	0.023700	0.084237
H35	H	0.255700	0.684600	0.987900	0.084237
H36	H	0.533000	0.228400	0.206700	0.084237
C1	C	0.975100	0.510200	0.542910	-0.317416
C2	C	0.943700	0.480000	0.851950	-0.317416
C3	C	0.050300	0.548600	0.801720	-0.317416
C4	C	0.518600	0.305900	0.755140	0.191449
C5	C	0.596400	0.296400	0.625460	0.191449
C6	C	0.611300	0.180300	0.627290	-0.192930
C7	C	0.528900	0.189700	0.761240	-0.192930
C8	C	0.573000	0.122030	0.695980	0.099807
C9	C	0.569800	0.994620	0.694650	0.099807
C10	C	0.614900	0.928600	0.628770	-0.192930
C11	C	0.515200	0.932000	0.757020	-0.192930
C12	C	0.600900	0.808800	0.626300	0.191449
C13	C	0.353100	0.108800	0.986360	-0.192930
C14	C	0.648200	0.144300	0.008000	-0.192930
C15	C	0.500400	0.063200	0.998850	0.099807
C16	C	0.358900	0.227400	0.985150	0.191449
C17	C	0.642900	0.262100	0.006000	0.191449
C18	C	0.504500	0.811800	0.750060	0.191449
C19	C	0.024900	0.489800	0.457090	-0.317416
C20	C	0.056300	0.520000	0.148050	-0.317416
C21	C	0.949700	0.451400	0.198280	-0.317416
C22	C	0.481400	0.694100	0.244860	0.191449
C23	C	0.403600	0.703600	0.374540	0.191449
C24	C	0.388700	0.819700	0.372710	-0.192930
C25	C	0.471100	0.810300	0.238760	-0.192930
C26	C	0.427000	0.877970	0.304020	0.099807
C27	C	0.430200	0.005380	0.305350	0.099807
C28	C	0.385100	0.071400	0.371230	-0.192930
C29	C	0.484800	0.068000	0.242980	-0.192930
C30	C	0.399100	0.191200	0.373700	0.191449
C31	C	0.646900	0.891200	0.013640	-0.192930
C32	C	0.351800	0.855700	0.992000	-0.192930
C33	C	0.499600	0.936800	0.001150	0.099807
C34	C	0.641100	0.772600	0.014850	0.191449
C35	C	0.357100	0.737900	0.994000	0.191449
C36	C	0.495500	0.188200	0.249940	0.191449
S1	S	0.776290	0.552540	0.523920	1.417314
S2	S	0.822920	0.572230	0.893520	1.417314
S3	S	0.202430	0.469920	0.779190	1.417314
S4	S	0.223710	0.447460	0.476080	1.417314
S5	S	0.177080	0.427770	0.106480	1.417314
S6	S	0.797570	0.530080	0.220810	1.417314
N1	N	0.501000	0.304950	0.995880	-0.340310
N2	N	0.550300	0.360190	0.687980	-0.340310
N3	N	0.544400	0.749230	0.685350	-0.340310
N4	N	0.499000	0.695050	0.004120	-0.340310
N5	N	0.449700	0.639810	0.312020	-0.340310
N6	N	0.455600	0.250770	0.314650	-0.340310
O1	O	0.747830	0.563650	0.612120	-0.755046
O2	O	0.784700	0.660750	0.486470	-0.662864
O3	O	0.657150	0.453590	0.463670	-0.755046
O4	O	0.721100	0.496840	0.937000	-0.755046
O5	O	0.720900	0.613840	0.817440	-0.755046
O6	O	0.941720	0.666490	0.954970	-0.662864
O7	O	0.296400	0.445460	0.865320	-0.755046
O8	O	0.305800	0.551750	0.740500	-0.755046
O9	O	0.114500	0.364480	0.719500	-0.662864
O10	O	0.252170	0.436350	0.387880	-0.755046
O11	O	0.215300	0.339250	0.513530	-0.662864
O12	O	0.342850	0.546410	0.536330	-0.755046
O13	O	0.278900	0.503160	0.063000	-0.755046
O14	O	0.279100	0.386160	0.182560	-0.755046
O15	O	0.058280	0.333510	0.045030	-0.662864
O16	O	0.703600	0.554540	0.134680	-0.755046
O17	O	0.694200	0.448250	0.259500	-0.755046
O18	O	0.885500	0.635520	0.280500	-0.662864
