data_ELILER_clean_PM
_symmetry_space_group_name_H-M	'P1'
_cell_length_a	9.349000
_cell_length_b	9.800001
_cell_length_c	11.379000
_cell_angle_alpha	94.440998
_cell_angle_beta	99.304999
_cell_angle_gamma	111.527002
_symmetry_Int_Tables_number 1

loop_
_symmetry_equiv_pos_as_xyz
'x,y,z'

loop_
_atom_site_label
_atom_site_type_symbol
_atom_site_fract_x
_atom_site_fract_y
_atom_site_fract_z
_atom_site_charge
Er1	Er	0.724190	0.454900	0.011310	1.492334
Er2	Er	0.275810	0.545100	0.988690	1.492334
H1	H	0.729400	0.772300	0.375800	0.105958
H2	H	0.823200	0.898400	0.565500	0.138774
H3	H	0.153000	0.725600	0.616800	0.138774
H4	H	0.066400	0.606400	0.420800	0.105958
H5	H	0.076800	0.140500	0.837300	0.134135
H6	H	0.678100	0.996400	0.960900	0.110413
H7	H	0.802900	0.707600	0.776900	0.134135
H8	H	0.270600	0.227700	0.624200	0.105958
H9	H	0.176800	0.101600	0.434500	0.138774
H10	H	0.847000	0.274400	0.383200	0.138774
H11	H	0.933600	0.393600	0.579200	0.105958
H12	H	0.923200	0.859500	0.162700	0.134135
H13	H	0.321900	0.003600	0.039100	0.110413
H14	H	0.197100	0.292400	0.223100	0.134135
C1	C	0.823900	0.587000	0.253000	0.698346
C2	C	0.883000	0.669800	0.374100	-0.159724
C3	C	0.814900	0.762400	0.423300	0.031867
C4	C	0.869400	0.836900	0.536700	-0.213467
C5	C	0.995300	0.821000	0.610200	0.294018
C6	C	0.068400	0.734900	0.567600	-0.213467
C7	C	0.014600	0.662200	0.450400	0.031867
C8	C	0.950700	0.922200	0.793500	0.238030
C9	C	0.985700	0.064000	0.845600	-0.151926
C10	C	0.884400	0.092900	0.910600	-0.090276
C11	C	0.749500	0.976900	0.921100	-0.030183
C12	C	0.718900	0.832000	0.873200	-0.090276
C13	C	0.821000	0.804100	0.809100	-0.151926
C14	C	0.918500	0.245800	0.966400	0.694407
C15	C	0.583100	0.708500	0.896800	0.694407
C16	C	0.176100	0.413000	0.747000	0.698346
C17	C	0.117000	0.330200	0.625900	-0.159724
C18	C	0.185100	0.237600	0.576700	0.031867
C19	C	0.130600	0.163100	0.463300	-0.213467
C20	C	0.004700	0.179000	0.389800	0.294018
C21	C	0.931600	0.265100	0.432400	-0.213467
C22	C	0.985400	0.337800	0.549600	0.031867
C23	C	0.049300	0.077800	0.206500	0.238030
C24	C	0.014300	0.936000	0.154400	-0.151926
C25	C	0.115600	0.907100	0.089400	-0.090276
C26	C	0.250500	0.023100	0.078900	-0.030183
C27	C	0.281100	0.168000	0.126800	-0.090276
C28	C	0.179000	0.195900	0.190900	-0.151926
C29	C	0.081500	0.754200	0.033600	0.694407
C30	C	0.416900	0.291500	0.103200	0.694407
O1	O	0.877800	0.494800	0.216700	-0.618160
O2	O	0.719800	0.611500	0.182600	-0.618160
O3	O	0.452400	0.722600	0.893900	-0.618160
O4	O	0.600200	0.590600	0.921900	-0.618160
O5	O	0.810200	0.268700	0.009000	-0.618160
O6	O	0.050300	0.344700	0.970700	-0.618160
O7	O	0.056500	0.895600	0.727300	-0.233217
O8	O	0.122200	0.505200	0.783300	-0.618160
O9	O	0.280200	0.388500	0.817400	-0.618160
O10	O	0.547600	0.277400	0.106100	-0.618160
O11	O	0.399800	0.409400	0.078100	-0.618160
O12	O	0.189800	0.731300	0.991000	-0.618160
O13	O	0.949700	0.655300	0.029300	-0.618160
O14	O	0.943500	0.104400	0.272700	-0.233217
