data_EXOZEX_clean_PM
_symmetry_space_group_name_H-M	'P1'
_cell_length_a	8.911400
_cell_length_b	11.390000
_cell_length_c	13.213700
_cell_angle_alpha	115.530002
_cell_angle_beta	92.995502
_cell_angle_gamma	89.999998
_symmetry_Int_Tables_number 1

loop_
_symmetry_equiv_pos_as_xyz
'x,y,z'

loop_
_atom_site_label
_atom_site_type_symbol
_atom_site_fract_x
_atom_site_fract_y
_atom_site_fract_z
_atom_site_charge
Cu1	Cu	0.000000	0.000000	0.000000	0.652887
Cu2	Cu	0.627770	0.030320	0.060640	0.904440
Cu3	Cu	0.372230	0.969680	0.939360	0.904440
H1	H	0.950700	0.154600	0.447000	0.092719
H2	H	0.755800	0.661700	0.766600	0.145930
H3	H	0.681800	0.597100	0.835800	0.145930
H4	H	0.456000	0.561700	0.709400	0.092719
H5	H	0.559900	0.595400	0.632600	0.092719
H6	H	0.750100	0.085800	0.308800	0.146239
H7	H	0.049300	0.707600	0.553000	0.092719
H8	H	0.244200	0.895100	0.233400	0.145930
H9	H	0.318200	0.761300	0.164200	0.145930
H10	H	0.544000	0.852300	0.290600	0.092719
H11	H	0.440100	0.962800	0.367400	0.092719
H12	H	0.249900	0.777000	0.691200	0.146239
H13	H	0.049300	0.845400	0.553000	0.092719
H14	H	0.244200	0.338300	0.233400	0.145930
H15	H	0.318200	0.402900	0.164200	0.145930
H16	H	0.544000	0.438300	0.290600	0.092719
H17	H	0.440100	0.404600	0.367400	0.092719
H18	H	0.249900	0.914200	0.691200	0.146239
H19	H	0.950700	0.292400	0.447000	0.092719
H20	H	0.755800	0.104900	0.766600	0.145930
H21	H	0.681800	0.238700	0.835800	0.145930
H22	H	0.456000	0.147700	0.709400	0.092719
H23	H	0.559900	0.037200	0.632600	0.092719
H24	H	0.750100	0.223000	0.308800	0.146239
C1	C	0.593600	0.775800	0.866600	0.718162
C2	C	0.660900	0.645200	0.791600	-0.375373
C3	C	0.558600	0.560300	0.687600	0.079808
C4	C	0.718300	0.387400	0.558600	0.615825
C5	C	0.406400	0.909200	0.133400	0.718162
C6	C	0.339100	0.853600	0.208400	-0.375373
C7	C	0.441400	0.872700	0.312400	0.079808
C8	C	0.281700	0.828800	0.441400	0.615825
C9	C	0.406400	0.224200	0.133400	0.718162
C10	C	0.339100	0.354800	0.208400	-0.375373
C11	C	0.441400	0.439700	0.312400	0.079808
C12	C	0.281700	0.612600	0.441400	0.615825
C13	C	0.593600	0.090800	0.866600	0.718162
C14	C	0.660900	0.146400	0.791600	-0.375373
C15	C	0.558600	0.127300	0.687600	0.079808
C16	C	0.718300	0.171200	0.558600	0.615825
C17	C	0.925700	0.112600	0.225200	0.725670
C18	C	0.812100	0.158500	0.317000	-0.383835
C19	C	0.887500	0.218100	0.436200	0.079483
C20	C	0.559200	0.341900	0.683800	0.615825
C21	C	0.074300	0.887400	0.774800	0.725670
C22	C	0.187900	0.841500	0.683000	-0.383835
C23	C	0.112500	0.781900	0.563800	0.079483
C24	C	0.440800	0.658100	0.316200	0.615825
N1	N	0.611100	0.423400	0.637000	-0.293981
N2	N	0.388900	0.786400	0.363000	-0.293981
N3	N	0.388900	0.576600	0.363000	-0.293981
N4	N	0.611100	0.213600	0.637000	-0.293981
N5	N	0.769600	0.260900	0.521800	-0.293981
N6	N	0.230400	0.739100	0.478200	-0.293981
O1	O	0.677400	0.852600	0.950200	-0.570323
O2	O	0.461000	0.799070	0.845140	-0.570323
O3	O	0.763700	0.462900	0.522200	-0.456040
O4	O	0.322600	0.902400	0.049800	-0.570323
O5	O	0.539000	0.953930	0.154860	-0.570323
O6	O	0.236300	0.940700	0.477800	-0.456040
O7	O	0.322600	0.147400	0.049800	-0.570323
O8	O	0.539000	0.200930	0.154860	-0.570323
O9	O	0.236300	0.537100	0.477800	-0.456040
O10	O	0.677400	0.097600	0.950200	-0.570323
O11	O	0.461000	0.046070	0.845140	-0.570323
O12	O	0.763700	0.059300	0.522200	-0.456040
O13	O	0.862900	0.061500	0.123000	-0.641032
O14	O	0.063400	0.122700	0.245400	-0.604996
O15	O	0.471700	0.380200	0.760400	-0.456040
O16	O	0.137100	0.938500	0.877000	-0.641032
O17	O	0.936600	0.877300	0.754600	-0.604996
O18	O	0.528300	0.619800	0.239600	-0.456040
