data_EYOPUE_PM
_symmetry_space_group_name_H-M	'P1'
_cell_length_a	8.022100
_cell_length_b	18.872500
_cell_length_c	18.872500
_cell_angle_alpha	90.000000
_cell_angle_beta	90.000000
_cell_angle_gamma	90.000000
_symmetry_Int_Tables_number 1

loop_
_symmetry_equiv_pos_as_xyz
'x,y,z'

loop_
_atom_site_label
_atom_site_type_symbol
_atom_site_fract_x
_atom_site_fract_y
_atom_site_fract_z
_atom_site_charge
Cd1	Cd	0.500000	0.215600	0.784400	0.962244
Cd2	Cd	0.500000	0.784400	0.215600	0.962244
Cd3	Cd	0.500000	0.715600	0.715600	0.962244
Cd4	Cd	0.500000	0.284400	0.284400	0.962244
H1	H	0.273900	0.790400	0.813700	0.149707
H2	H	0.273900	0.209600	0.186300	0.149707
H3	H	0.273900	0.686300	0.290400	0.149707
H4	H	0.273900	0.313700	0.709600	0.149707
H5	H	0.726100	0.709600	0.313700	0.149707
H6	H	0.726100	0.290400	0.686300	0.149707
H7	H	0.726100	0.813700	0.790400	0.149707
H8	H	0.726100	0.186300	0.209600	0.149707
H9	H	0.107800	0.829100	0.793200	0.149707
H10	H	0.107800	0.170900	0.206800	0.149707
H11	H	0.107800	0.706800	0.329100	0.149707
H12	H	0.107800	0.293200	0.670900	0.149707
H13	H	0.892200	0.670900	0.293200	0.149707
H14	H	0.892200	0.329100	0.706800	0.149707
H15	H	0.892200	0.793200	0.829100	0.149707
H16	H	0.892200	0.206800	0.170900	0.149707
H17	H	0.241900	0.868300	0.839100	0.149707
H18	H	0.241900	0.131700	0.160900	0.149707
H19	H	0.241900	0.660900	0.368300	0.149707
H20	H	0.241900	0.339100	0.631700	0.149707
H21	H	0.758100	0.631700	0.339100	0.149707
H22	H	0.758100	0.368300	0.660900	0.149707
H23	H	0.758100	0.839100	0.868300	0.149707
H24	H	0.758100	0.160900	0.131700	0.149707
H25	H	0.557300	0.867200	0.614900	0.111225
H26	H	0.557300	0.132800	0.385100	0.111225
H27	H	0.557300	0.885100	0.367200	0.111225
H28	H	0.557300	0.114900	0.632800	0.111225
H29	H	0.442700	0.632800	0.114900	0.111225
H30	H	0.442700	0.367200	0.885100	0.111225
H31	H	0.442700	0.614900	0.867200	0.111225
H32	H	0.442700	0.385100	0.132800	0.111225
H33	H	0.383900	0.974100	0.620500	0.132452
H34	H	0.383900	0.025900	0.379500	0.132452
H35	H	0.383900	0.879500	0.474100	0.132452
H36	H	0.383900	0.120500	0.525900	0.132452
H37	H	0.616100	0.525900	0.120500	0.132452
H38	H	0.616100	0.474100	0.879500	0.132452
H39	H	0.616100	0.620500	0.974100	0.132452
H40	H	0.616100	0.379500	0.025900	0.132452
H41	H	0.273700	0.058000	0.735500	0.122029
H42	H	0.273700	0.942000	0.264500	0.122029
H43	H	0.273700	0.764500	0.558000	0.122029
H44	H	0.273700	0.235500	0.442000	0.122029
H45	H	0.726300	0.442000	0.235500	0.122029
H46	H	0.726300	0.558000	0.764500	0.122029
H47	H	0.726300	0.735500	0.058000	0.122029
H48	H	0.726300	0.264500	0.942000	0.122029
H49	H	0.946400	0.900800	0.711800	0.122029
H50	H	0.946400	0.099200	0.288200	0.122029
H51	H	0.946400	0.788200	0.400800	0.122029
H52	H	0.946400	0.211800	0.599200	0.122029
H53	H	0.053600	0.599200	0.211800	0.122029
H54	H	0.053600	0.400800	0.788200	0.122029
H55	H	0.053600	0.711800	0.900800	0.122029
H56	H	0.053600	0.288200	0.099200	0.122029
H57	H	0.064300	0.135100	0.759600	0.097077
H58	H	0.064300	0.864900	0.240400	0.097077
H59	H	0.064300	0.740400	0.635100	0.097077
H60	H	0.064300	0.259600	0.364900	0.097077
H61	H	0.935700	0.364900	0.259600	0.097077
H62	H	0.935700	0.635100	0.740400	0.097077
H63	H	0.935700	0.759600	0.135100	0.097077
H64	H	0.935700	0.240400	0.864900	0.097077
H65	H	0.734100	0.976200	0.742700	0.097077
H66	H	0.734100	0.023800	0.257300	0.097077
H67	H	0.734100	0.757300	0.476200	0.097077
H68	H	0.734100	0.242700	0.523800	0.097077
H69	H	0.265900	0.523800	0.242700	0.097077
H70	H	0.265900	0.476200	0.757300	0.097077
H71	H	0.265900	0.742700	0.976200	0.097077
H72	H	0.265900	0.257300	0.023800	0.097077
C1	C	0.225100	0.835200	0.801200	-0.429643
C2	C	0.225100	0.164800	0.198800	-0.429643
C3	C	0.225100	0.698800	0.335200	-0.429643
C4	C	0.225100	0.301200	0.664800	-0.429643
C5	C	0.774900	0.664800	0.301200	-0.429643
C6	C	0.774900	0.335200	0.698800	-0.429643
C7	C	0.774900	0.801200	0.835200	-0.429643
C8	C	0.774900	0.198800	0.164800	-0.429643
C9	C	0.304200	0.862200	0.736400	0.355942
C10	C	0.304200	0.137800	0.263600	0.355942
C11	C	0.304200	0.763600	0.362200	0.355942
C12	C	0.304200	0.236400	0.637800	0.355942
C13	C	0.695800	0.637800	0.236400	0.355942
C14	C	0.695800	0.362200	0.763600	0.355942
C15	C	0.695800	0.736400	0.862200	0.355942
C16	C	0.695800	0.263600	0.137800	0.355942
C17	C	0.473000	0.875800	0.647600	0.037622
C18	C	0.473000	0.124200	0.352400	0.037622
C19	C	0.473000	0.852400	0.375800	0.037622
C20	C	0.473000	0.147600	0.624200	0.037622
C21	C	0.527000	0.624200	0.147600	0.037622
C22	C	0.527000	0.375800	0.852400	0.037622
C23	C	0.527000	0.647600	0.875800	0.037622
C24	C	0.527000	0.352400	0.124200	0.037622
C25	C	0.376900	0.934700	0.649900	-0.152817
C26	C	0.376900	0.065300	0.350100	-0.152817
C27	C	0.376900	0.850100	0.434700	-0.152817
C28	C	0.376900	0.149900	0.565300	-0.152817
C29	C	0.623100	0.565300	0.149900	-0.152817
C30	C	0.623100	0.434700	0.850100	-0.152817
C31	C	0.623100	0.649900	0.934700	-0.152817
C32	C	0.623100	0.350100	0.065300	-0.152817
C33	C	0.131100	0.971500	0.723300	0.126012
C34	C	0.131100	0.028500	0.276700	0.126012
C35	C	0.131100	0.776700	0.471500	0.126012
C36	C	0.131100	0.223300	0.528500	0.126012
C37	C	0.868900	0.528500	0.223300	0.126012
C38	C	0.868900	0.471500	0.776700	0.126012
C39	C	0.868900	0.723300	0.971500	0.126012
C40	C	0.868900	0.276700	0.028500	0.126012
C41	C	0.164200	0.041900	0.736500	-0.183902
C42	C	0.164200	0.958100	0.263500	-0.183902
C43	C	0.164200	0.763500	0.541900	-0.183902
C44	C	0.164200	0.236500	0.458100	-0.183902
C45	C	0.835800	0.458100	0.236500	-0.183902
C46	C	0.835800	0.541900	0.763500	-0.183902
C47	C	0.835800	0.736500	0.041900	-0.183902
C48	C	0.835800	0.263500	0.958100	-0.183902
C49	C	0.969700	0.947700	0.723200	-0.183902
C50	C	0.969700	0.052300	0.276800	-0.183902
C51	C	0.969700	0.776800	0.447700	-0.183902
C52	C	0.969700	0.223200	0.552300	-0.183902
C53	C	0.030300	0.552300	0.223200	-0.183902
C54	C	0.030300	0.447700	0.776800	-0.183902
C55	C	0.030300	0.723200	0.947700	-0.183902
C56	C	0.030300	0.276800	0.052300	-0.183902
C57	C	0.039500	0.087800	0.751000	-0.000796
C58	C	0.039500	0.912200	0.249000	-0.000796
C59	C	0.039500	0.749000	0.587800	-0.000796
C60	C	0.039500	0.251000	0.412200	-0.000796
C61	C	0.960500	0.412200	0.251000	-0.000796
C62	C	0.960500	0.587800	0.749000	-0.000796
C63	C	0.960500	0.751000	0.087800	-0.000796
C64	C	0.960500	0.249000	0.912200	-0.000796
C65	C	0.842600	0.993300	0.740100	-0.000796
C66	C	0.842600	0.006700	0.259900	-0.000796
C67	C	0.842600	0.759900	0.493300	-0.000796
C68	C	0.842600	0.240100	0.506700	-0.000796
C69	C	0.157400	0.506700	0.240100	-0.000796
C70	C	0.157400	0.493300	0.759900	-0.000796
C71	C	0.157400	0.740100	0.993300	-0.000796
C72	C	0.157400	0.259900	0.006700	-0.000796
C73	C	0.872900	0.064900	0.753300	-0.162443
C74	C	0.872900	0.935100	0.246700	-0.162443
C75	C	0.872900	0.746700	0.564900	-0.162443
C76	C	0.872900	0.253300	0.435100	-0.162443
C77	C	0.127100	0.435100	0.253300	-0.162443
C78	C	0.127100	0.564900	0.746700	-0.162443
C79	C	0.127100	0.753300	0.064900	-0.162443
C80	C	0.127100	0.246700	0.935100	-0.162443
C81	C	0.733700	0.115100	0.769900	0.643497
C82	C	0.733700	0.884900	0.230100	0.643497
C83	C	0.733700	0.730100	0.615100	0.643497
C84	C	0.733700	0.269900	0.384900	0.643497
C85	C	0.266300	0.384900	0.269900	0.643497
C86	C	0.266300	0.615100	0.730100	0.643497
C87	C	0.266300	0.769900	0.115100	0.643497
C88	C	0.266300	0.230100	0.884900	0.643497
N1	N	0.425500	0.829900	0.702200	-0.420405
N2	N	0.425500	0.170100	0.297800	-0.420405
N3	N	0.425500	0.797800	0.329900	-0.420405
N4	N	0.425500	0.202200	0.670100	-0.420405
N5	N	0.574500	0.670100	0.202200	-0.420405
N6	N	0.574500	0.329900	0.797800	-0.420405
N7	N	0.574500	0.702200	0.829900	-0.420405
N8	N	0.574500	0.297800	0.170100	-0.420405
N9	N	0.266000	0.924300	0.705200	-0.003222
N10	N	0.266000	0.075700	0.294800	-0.003222
N11	N	0.266000	0.794800	0.424300	-0.003222
N12	N	0.266000	0.205200	0.575700	-0.003222
N13	N	0.734000	0.575700	0.205200	-0.003222
N14	N	0.734000	0.424300	0.794800	-0.003222
N15	N	0.734000	0.705200	0.924300	-0.003222
N16	N	0.734000	0.294800	0.075700	-0.003222
O1	O	0.770500	0.179600	0.771500	-0.618640
O2	O	0.770500	0.820400	0.228500	-0.618640
O3	O	0.770500	0.728500	0.679600	-0.618640
O4	O	0.770500	0.271500	0.320400	-0.618640
O5	O	0.229500	0.320400	0.271500	-0.618640
O6	O	0.229500	0.679600	0.728500	-0.618640
O7	O	0.229500	0.771500	0.179600	-0.618640
O8	O	0.229500	0.228500	0.820400	-0.618640
O9	O	0.590500	0.092800	0.779500	-0.618640
O10	O	0.590500	0.907200	0.220500	-0.618640
O11	O	0.590500	0.720500	0.592800	-0.618640
O12	O	0.590500	0.279500	0.407200	-0.618640
O13	O	0.409500	0.407200	0.279500	-0.618640
O14	O	0.409500	0.592800	0.720500	-0.618640
O15	O	0.409500	0.779500	0.092800	-0.618640
O16	O	0.409500	0.220500	0.907200	-0.618640
