data_FARYAA_clean_PM
_symmetry_space_group_name_H-M	'P1'
_cell_length_a	13.339900
_cell_length_b	13.339900
_cell_length_c	20.777300
_cell_angle_alpha	90.000000
_cell_angle_beta	90.000000
_cell_angle_gamma	108.342000
_symmetry_Int_Tables_number 1

loop_
_symmetry_equiv_pos_as_xyz
'x,y,z'

loop_
_atom_site_label
_atom_site_type_symbol
_atom_site_fract_x
_atom_site_fract_y
_atom_site_fract_z
_atom_site_charge
K1	K	0.126900	0.126900	0.000000	0.883445
K2	K	0.873100	0.873100	0.500000	0.883445
K3	K	0.873100	0.873100	0.000000	0.883445
K4	K	0.126900	0.126900	0.500000	0.883445
Nd1	Nd	0.628750	0.881650	0.250000	2.303674
Nd2	Nd	0.371250	0.118350	0.750000	2.303674
Nd3	Nd	0.118350	0.371250	0.250000	2.303674
Nd4	Nd	0.881650	0.628750	0.750000	2.303674
Re1	Re	0.256550	0.559890	0.950250	-0.034976
Re2	Re	0.743450	0.440110	0.450250	-0.034976
Re3	Re	0.440110	0.743450	0.549750	-0.034976
Re4	Re	0.559890	0.256550	0.049750	-0.034976
Re5	Re	0.743450	0.440110	0.049750	-0.034976
Re6	Re	0.256550	0.559890	0.549750	-0.034976
Re7	Re	0.559890	0.256550	0.450250	-0.034976
Re8	Re	0.440110	0.743450	0.950250	-0.034976
Re9	Re	0.297500	0.702500	0.057700	-0.044421
Re10	Re	0.234640	0.765360	0.933860	-0.047080
Re11	Re	0.702500	0.297500	0.557700	-0.044421
Re12	Re	0.765360	0.234640	0.433860	-0.047080
Re13	Re	0.297500	0.702500	0.442300	-0.044421
Re14	Re	0.234640	0.765360	0.566140	-0.047080
Re15	Re	0.702500	0.297500	0.942300	-0.044421
Re16	Re	0.765360	0.234640	0.066140	-0.047080
Te1	Te	0.108320	0.620540	0.008060	0.265466
Te2	Te	0.891680	0.379460	0.508060	0.265466
Te3	Te	0.379460	0.891680	0.491940	0.265466
Te4	Te	0.620540	0.108320	0.991940	0.265466
Te5	Te	0.891680	0.379460	0.991940	0.265466
Te6	Te	0.108320	0.620540	0.491940	0.265466
Te7	Te	0.620540	0.108320	0.508060	0.265466
Te8	Te	0.379460	0.891680	0.008060	0.265466
Te9	Te	0.323260	0.676740	0.847440	0.266223
Te10	Te	0.416240	0.583760	0.030310	0.266924
Te11	Te	0.676740	0.323260	0.347440	0.266223
Te12	Te	0.583760	0.416240	0.530310	0.266924
Te13	Te	0.323260	0.676740	0.652560	0.266223
Te14	Te	0.416240	0.583760	0.469690	0.266924
Te15	Te	0.676740	0.323260	0.152560	0.266223
Te16	Te	0.583760	0.416240	0.969690	0.266924
C1	C	0.415200	0.763800	0.128400	0.296456
C2	C	0.131100	0.478700	0.889500	0.066862
C3	C	0.325500	0.457900	0.902500	0.066862
C4	C	0.186900	0.419700	0.001900	0.116336
C5	C	0.284000	0.893400	0.869100	0.295757
C6	C	0.584800	0.236200	0.628400	0.296456
C7	C	0.868900	0.521300	0.389500	0.066862
C8	C	0.674500	0.542100	0.402500	0.066862
C9	C	0.813100	0.580300	0.501900	0.116336
C10	C	0.716000	0.106600	0.369100	0.295757
C11	C	0.236200	0.584800	0.371600	0.296456
C12	C	0.521300	0.868900	0.610500	0.066862
C13	C	0.542100	0.674500	0.597500	0.066862
C14	C	0.580300	0.813100	0.498100	0.116336
C15	C	0.106600	0.716000	0.630900	0.295757
C16	C	0.763800	0.415200	0.871600	0.296456
C17	C	0.478700	0.131100	0.110500	0.066862
C18	C	0.457900	0.325500	0.097500	0.066862
C19	C	0.419700	0.186900	0.998100	0.116336
C20	C	0.893400	0.284000	0.130900	0.295757
C21	C	0.584800	0.236200	0.871600	0.296456
C22	C	0.868900	0.521300	0.110500	0.066862
C23	C	0.674500	0.542100	0.097500	0.066862
C24	C	0.813100	0.580300	0.998100	0.116336
C25	C	0.716000	0.106600	0.130900	0.295757
C26	C	0.415200	0.763800	0.371600	0.296456
C27	C	0.131100	0.478700	0.610500	0.066862
C28	C	0.325500	0.457900	0.597500	0.066862
C29	C	0.186900	0.419700	0.498100	0.116336
C30	C	0.284000	0.893400	0.630900	0.295757
C31	C	0.763800	0.415200	0.628400	0.296456
C32	C	0.478700	0.131100	0.389500	0.066862
C33	C	0.457900	0.325500	0.402500	0.066862
C34	C	0.419700	0.186900	0.501900	0.116336
C35	C	0.893400	0.284000	0.369100	0.295757
C36	C	0.236200	0.584800	0.128400	0.296456
C37	C	0.521300	0.868900	0.889500	0.066862
C38	C	0.542100	0.674500	0.902500	0.066862
C39	C	0.580300	0.813100	0.001900	0.116336
C40	C	0.106600	0.716000	0.869100	0.295757
C41	C	0.218300	0.781700	0.116200	0.065108
C42	C	0.142800	0.857200	0.969200	0.130710
C43	C	0.781700	0.218300	0.616200	0.065108
C44	C	0.857200	0.142800	0.469200	0.130710
C45	C	0.218300	0.781700	0.383800	0.065108
C46	C	0.142800	0.857200	0.530800	0.130710
C47	C	0.781700	0.218300	0.883800	0.065108
C48	C	0.857200	0.142800	0.030800	0.130710
N1	N	0.480600	0.797800	0.165700	-0.658518
N2	N	0.063400	0.431400	0.857900	-0.422567
N3	N	0.362700	0.404300	0.875300	-0.422567
N4	N	0.145800	0.341000	0.026400	-0.387794
N5	N	0.311500	0.963500	0.834300	-0.658518
N6	N	0.519400	0.202200	0.665700	-0.658518
N7	N	0.936600	0.568600	0.357900	-0.422567
N8	N	0.637300	0.595700	0.375300	-0.422567
N9	N	0.854200	0.659000	0.526400	-0.387794
N10	N	0.688500	0.036500	0.334300	-0.658518
N11	N	0.202200	0.519400	0.334300	-0.658518
N12	N	0.568600	0.936600	0.642100	-0.422567
N13	N	0.595700	0.637300	0.624700	-0.422567
N14	N	0.659000	0.854200	0.473600	-0.387794
N15	N	0.036500	0.688500	0.665700	-0.658518
N16	N	0.797800	0.480600	0.834300	-0.658518
N17	N	0.431400	0.063400	0.142100	-0.422567
N18	N	0.404300	0.362700	0.124700	-0.422567
N19	N	0.341000	0.145800	0.973600	-0.387794
N20	N	0.963500	0.311500	0.165700	-0.658518
N21	N	0.519400	0.202200	0.834300	-0.658518
N22	N	0.936600	0.568600	0.142100	-0.422567
N23	N	0.637300	0.595700	0.124700	-0.422567
N24	N	0.854200	0.659000	0.973600	-0.387794
N25	N	0.688500	0.036500	0.165700	-0.658518
N26	N	0.480600	0.797800	0.334300	-0.658518
N27	N	0.063400	0.431400	0.642100	-0.422567
N28	N	0.362700	0.404300	0.624700	-0.422567
N29	N	0.145800	0.341000	0.473600	-0.387794
N30	N	0.311500	0.963500	0.665700	-0.658518
N31	N	0.797800	0.480600	0.665700	-0.658518
N32	N	0.431400	0.063400	0.357900	-0.422567
N33	N	0.404300	0.362700	0.375300	-0.422567
N34	N	0.341000	0.145800	0.526400	-0.387794
N35	N	0.963500	0.311500	0.334300	-0.658518
N36	N	0.202200	0.519400	0.165700	-0.658518
N37	N	0.568600	0.936600	0.857900	-0.422567
N38	N	0.595700	0.637300	0.875300	-0.422567
N39	N	0.659000	0.854200	0.026400	-0.387794
N40	N	0.036500	0.688500	0.834300	-0.658518
N41	N	0.176100	0.823900	0.148500	-0.422567
N42	N	0.092800	0.907200	0.984200	-0.447619
N43	N	0.823900	0.176100	0.648500	-0.422567
N44	N	0.907200	0.092800	0.484200	-0.447619
N45	N	0.176100	0.823900	0.351500	-0.422567
N46	N	0.092800	0.907200	0.515800	-0.447619
N47	N	0.823900	0.176100	0.851500	-0.422567
N48	N	0.907200	0.092800	0.015800	-0.447619
