data_FATKAO_clean_PM
_symmetry_space_group_name_H-M	'P1'
_cell_length_a	10.190000
_cell_length_b	11.232000
_cell_length_c	22.140000
_cell_angle_alpha	90.000000
_cell_angle_beta	96.862998
_cell_angle_gamma	90.000000
_symmetry_Int_Tables_number 1

loop_
_symmetry_equiv_pos_as_xyz
'x,y,z'

loop_
_atom_site_label
_atom_site_type_symbol
_atom_site_fract_x
_atom_site_fract_y
_atom_site_fract_z
_atom_site_charge
Gd1	Gd	0.388950	0.686170	0.274530	2.037919
Gd2	Gd	0.741120	0.411730	0.436090	2.167986
Gd3	Gd	0.111050	0.186170	0.225470	2.037919
Gd4	Gd	0.758880	0.911730	0.063910	2.167986
Gd5	Gd	0.611050	0.313830	0.725470	2.037919
Gd6	Gd	0.258880	0.588270	0.563910	2.167986
Gd7	Gd	0.888950	0.813830	0.774530	2.037919
Gd8	Gd	0.241120	0.088270	0.936090	2.167986
H1	H	0.750100	0.389700	0.074300	0.153870
H2	H	0.903100	0.369200	0.087200	0.153870
H3	H	0.805900	0.261200	0.087900	0.153870
H4	H	0.040200	0.668700	0.203800	0.153870
H5	H	0.930100	0.580700	0.219700	0.153870
H6	H	0.910900	0.718400	0.226400	0.153870
H7	H	0.662000	0.470500	0.164800	0.291496
H8	H	0.882000	0.618000	0.338600	0.291496
H9	H	0.749900	0.889700	0.425700	0.153870
H10	H	0.596900	0.869200	0.412800	0.153870
H11	H	0.694100	0.761200	0.412100	0.153870
H12	H	0.459800	0.168700	0.296200	0.153870
H13	H	0.569900	0.080700	0.280300	0.153870
H14	H	0.589100	0.218400	0.273600	0.153870
H15	H	0.838000	0.970500	0.335200	0.291496
H16	H	0.618000	0.118000	0.161400	0.291496
H17	H	0.249900	0.610300	0.925700	0.153870
H18	H	0.096900	0.630800	0.912800	0.153870
H19	H	0.194100	0.738800	0.912100	0.153870
H20	H	0.959800	0.331300	0.796200	0.153870
H21	H	0.069900	0.419300	0.780300	0.153870
H22	H	0.089100	0.281600	0.773600	0.153870
H23	H	0.338000	0.529500	0.835200	0.291496
H24	H	0.118000	0.382000	0.661400	0.291496
H25	H	0.250100	0.110300	0.574300	0.153870
H26	H	0.403100	0.130800	0.587200	0.153870
H27	H	0.305900	0.238800	0.587900	0.153870
H28	H	0.540200	0.831300	0.703800	0.153870
H29	H	0.430100	0.919300	0.719700	0.153870
H30	H	0.410900	0.781600	0.726400	0.153870
H31	H	0.162000	0.029500	0.664800	0.291496
H32	H	0.382000	0.882000	0.838600	0.291496
C1	C	0.921100	0.311300	0.320600	0.735385
C2	C	0.849400	0.354000	0.262500	0.064968
C3	C	0.742700	0.427100	0.248500	-0.055754
C4	C	0.659400	0.504800	0.283700	0.737351
C5	C	0.812100	0.363300	0.164400	0.462216
C6	C	0.818400	0.344100	0.097400	-0.433613
C7	C	0.307800	0.652800	0.412400	0.735385
C8	C	0.174300	0.649600	0.376200	0.064968
C9	C	0.050600	0.628700	0.394300	-0.067321
C10	C	0.994400	0.614900	0.452600	0.769587
C11	C	0.037500	0.648700	0.293900	0.462216
C12	C	0.974100	0.654600	0.230400	-0.433613
C13	C	0.295900	0.407600	0.278500	0.541459
C14	C	0.236700	0.453300	0.215000	0.541459
C15	C	0.578900	0.811300	0.179400	0.735385
C16	C	0.650600	0.854000	0.237500	0.064968
C17	C	0.757300	0.927100	0.251500	-0.055754
C18	C	0.840600	0.004800	0.216300	0.737351
C19	C	0.687900	0.863300	0.335600	0.462216
C20	C	0.681600	0.844100	0.402600	-0.433613
C21	C	0.192200	0.152800	0.087600	0.735385
C22	C	0.325700	0.149600	0.123800	0.064968
C23	C	0.449400	0.128700	0.105700	-0.067321
C24	C	0.505600	0.114900	0.047400	0.769587
C25	C	0.462500	0.148700	0.206100	0.462216
C26	C	0.525900	0.154600	0.269600	-0.433613
C27	C	0.204100	0.907600	0.221500	0.541459
C28	C	0.263300	0.953300	0.285000	0.541459
C29	C	0.078900	0.688700	0.679400	0.735385
C30	C	0.150600	0.646000	0.737500	0.064968
C31	C	0.257300	0.572900	0.751500	-0.055754
C32	C	0.340600	0.495200	0.716300	0.737351
C33	C	0.187900	0.636700	0.835600	0.462216
C34	C	0.181600	0.655900	0.902600	-0.433613
C35	C	0.692200	0.347200	0.587600	0.735385
C36	C	0.825700	0.350400	0.623800	0.064968
C37	C	0.949400	0.371300	0.605700	-0.067321
C38	C	0.005600	0.385100	0.547400	0.769587
C39	C	0.962500	0.351300	0.706100	0.462216
C40	C	0.025900	0.345400	0.769600	-0.433613
C41	C	0.704100	0.592400	0.721500	0.541459
C42	C	0.763300	0.546700	0.785000	0.541459
C43	C	0.421100	0.188700	0.820600	0.735385
C44	C	0.349400	0.146000	0.762500	0.064968
C45	C	0.242700	0.072900	0.748500	-0.055754
C46	C	0.159400	0.995200	0.783700	0.737351
C47	C	0.312100	0.136700	0.664400	0.462216
C48	C	0.318400	0.155900	0.597400	-0.433613
C49	C	0.807800	0.847200	0.912400	0.735385
C50	C	0.674300	0.850400	0.876200	0.064968
C51	C	0.550600	0.871300	0.894300	-0.067321
C52	C	0.494400	0.885100	0.952600	0.769587
C53	C	0.537500	0.851300	0.793900	0.462216
C54	C	0.474100	0.845400	0.730400	-0.433613
C55	C	0.795900	0.092400	0.778500	0.541459
C56	C	0.736700	0.046700	0.715000	0.541459
N1	N	0.894800	0.312400	0.208400	-0.508899
N2	N	0.722900	0.430700	0.186200	-0.257575
N3	N	0.164600	0.659900	0.314000	-0.508899
N4	N	0.966000	0.628700	0.341500	-0.257575
N5	N	0.605200	0.812400	0.291600	-0.508899
N6	N	0.777100	0.930700	0.313800	-0.257575
N7	N	0.335400	0.159900	0.186000	-0.508899
N8	N	0.534000	0.128700	0.158500	-0.257575
N9	N	0.105200	0.687600	0.791600	-0.508899
N10	N	0.277100	0.569300	0.813800	-0.257575
N11	N	0.835400	0.340100	0.686000	-0.508899
N12	N	0.034000	0.371300	0.658500	-0.257575
N13	N	0.394800	0.187600	0.708400	-0.508899
N14	N	0.222900	0.069300	0.686200	-0.257575
N15	N	0.664600	0.840100	0.814000	-0.508899
N16	N	0.466000	0.871300	0.841500	-0.257575
O1	O	0.878900	0.336300	0.369000	-0.750009
O2	O	0.024900	0.253000	0.317800	-0.668921
O3	O	0.685800	0.513400	0.341200	-0.752180
O4	O	0.402900	0.676600	0.383800	-0.668921
O5	O	0.570900	0.560500	0.252600	-0.670842
O6	O	0.320500	0.629900	0.468100	-0.750009
O7	O	0.060000	0.635400	0.501700	-0.742638
O8	O	0.872200	0.585200	0.446800	-0.742638
O9	O	0.366300	0.478600	0.311800	-0.639426
O10	O	0.268600	0.303500	0.291400	-0.639426
O11	O	0.272700	0.556500	0.200500	-0.639426
O12	O	0.159300	0.385600	0.184000	-0.639426
O13	O	0.621100	0.836300	0.131000	-0.750009
O14	O	0.475100	0.753000	0.182200	-0.668921
O15	O	0.814200	0.013400	0.158800	-0.752180
O16	O	0.097100	0.176600	0.116200	-0.668921
O17	O	0.929100	0.060500	0.247400	-0.670842
O18	O	0.179500	0.129900	0.031900	-0.750009
O19	O	0.440000	0.135400	0.998300	-0.742638
O20	O	0.627800	0.085200	0.053200	-0.742638
O21	O	0.133700	0.978600	0.188200	-0.639426
O22	O	0.231400	0.803500	0.208600	-0.639426
O23	O	0.227300	0.056500	0.299500	-0.639426
O24	O	0.340700	0.885600	0.316000	-0.639426
O25	O	0.121100	0.663700	0.631000	-0.750009
O26	O	0.975100	0.747000	0.682200	-0.668921
O27	O	0.314200	0.486600	0.658800	-0.752180
O28	O	0.597100	0.323400	0.616200	-0.668921
O29	O	0.429100	0.439500	0.747400	-0.670842
O30	O	0.679500	0.370100	0.531900	-0.750009
O31	O	0.940000	0.364600	0.498300	-0.742638
O32	O	0.127800	0.414800	0.553200	-0.742638
O33	O	0.633700	0.521400	0.688200	-0.639426
O34	O	0.731400	0.696500	0.708600	-0.639426
O35	O	0.727300	0.443500	0.799500	-0.639426
O36	O	0.840700	0.614400	0.816000	-0.639426
O37	O	0.378900	0.163700	0.869000	-0.750009
O38	O	0.524900	0.247000	0.817800	-0.668921
O39	O	0.185800	0.986600	0.841200	-0.752180
O40	O	0.902900	0.823400	0.883800	-0.668921
O41	O	0.070900	0.939500	0.752600	-0.670842
O42	O	0.820500	0.870100	0.968100	-0.750009
O43	O	0.560000	0.864600	0.001700	-0.742638
O44	O	0.372200	0.914800	0.946800	-0.742638
O45	O	0.866300	0.021400	0.811800	-0.639426
O46	O	0.768600	0.196500	0.791400	-0.639426
O47	O	0.772700	0.943500	0.700500	-0.639426
O48	O	0.659300	0.114400	0.684000	-0.639426
