data_FATLUJ_clean_PM
_symmetry_space_group_name_H-M	'P1'
_cell_length_a	11.575000
_cell_length_b	12.634000
_cell_length_c	14.335000
_cell_angle_alpha	101.369002
_cell_angle_beta	102.935001
_cell_angle_gamma	96.456998
_symmetry_Int_Tables_number 1

loop_
_symmetry_equiv_pos_as_xyz
'x,y,z'

loop_
_atom_site_label
_atom_site_type_symbol
_atom_site_fract_x
_atom_site_fract_y
_atom_site_fract_z
_atom_site_charge
Cu1	Cu	0.900350	0.937020	0.285580	0.949564
Cu2	Cu	0.106150	0.950020	0.483560	1.012022
Cu3	Cu	0.099650	0.062980	0.714420	0.949564
Cu4	Cu	0.893850	0.049980	0.516440	1.012022
H1	H	0.561600	0.695000	0.469300	0.101573
H2	H	0.572300	0.591200	0.713800	0.101573
H3	H	0.256100	0.565600	0.523200	0.101573
H4	H	0.180600	0.682900	0.234100	0.118561
H5	H	0.067800	0.615800	0.251000	0.118561
H6	H	0.947400	0.713300	0.656200	0.118561
H7	H	0.946700	0.711900	0.546400	0.118561
H8	H	0.407700	0.339200	0.821000	0.117227
H9	H	0.301500	0.405700	0.820600	0.117227
H10	H	0.336400	0.106200	0.529800	0.077777
H11	H	0.527600	0.121200	0.607100	0.128029
H12	H	0.448600	0.844200	0.694000	0.128029
H13	H	0.254800	0.832200	0.608100	0.077777
H14	H	0.680400	0.946600	0.662000	0.094621
H15	H	0.686100	0.070900	0.708800	0.094621
H16	H	0.630500	0.902300	0.799500	0.068881
H17	H	0.641900	0.027400	0.846500	0.068881
H18	H	0.843500	0.921100	0.810700	0.094621
H19	H	0.858300	0.049300	0.843800	0.094621
H20	H	0.844500	0.131300	0.015700	0.128029
H21	H	0.862700	0.110000	0.172200	0.077777
H22	H	0.865300	0.800800	0.089700	0.077777
H23	H	0.832800	0.811200	0.930300	0.128029
H24	H	0.178200	0.603400	0.395500	0.283402
H25	H	0.746900	0.683900	0.508000	0.283402
H26	H	0.468000	0.431100	0.718400	0.283402
H27	H	0.438400	0.305000	0.530700	0.101573
H28	H	0.427700	0.408800	0.286200	0.101573
H29	H	0.743900	0.434400	0.476800	0.101573
H30	H	0.819400	0.317100	0.765900	0.118561
H31	H	0.932200	0.384200	0.749000	0.118561
H32	H	0.052600	0.286700	0.343800	0.118561
H33	H	0.053300	0.288100	0.453600	0.118561
H34	H	0.592300	0.660800	0.179000	0.117227
H35	H	0.698500	0.594300	0.179400	0.117227
H36	H	0.663600	0.893800	0.470200	0.077777
H37	H	0.472400	0.878800	0.392900	0.128029
H38	H	0.551400	0.155800	0.306000	0.128029
H39	H	0.745200	0.167800	0.391900	0.077777
H40	H	0.319600	0.053400	0.338000	0.094621
H41	H	0.313900	0.929100	0.291200	0.094621
H42	H	0.369500	0.097700	0.200500	0.068881
H43	H	0.358100	0.972600	0.153500	0.068881
H44	H	0.156500	0.078900	0.189300	0.094621
H45	H	0.141700	0.950700	0.156200	0.094621
H46	H	0.155500	0.868700	0.984300	0.128029
H47	H	0.137300	0.890000	0.827800	0.077777
H48	H	0.134700	0.199200	0.910300	0.077777
H49	H	0.167200	0.188800	0.069700	0.128029
H50	H	0.821800	0.396600	0.604500	0.283402
H51	H	0.253100	0.316100	0.492000	0.283402
H52	H	0.532000	0.568900	0.281600	0.283402
C1	C	0.397000	0.630500	0.478200	-0.153067
C2	C	0.522300	0.663200	0.509300	-0.015141
C3	C	0.587500	0.649700	0.596400	-0.153067
C4	C	0.528100	0.600900	0.654300	-0.015141
C5	C	0.407600	0.566800	0.627700	-0.153067
C6	C	0.339400	0.584400	0.540200	-0.015141
C7	C	0.331100	0.648700	0.380700	0.540011
C8	C	0.137100	0.672400	0.282900	-0.121828
C9	C	0.094700	0.776800	0.319500	0.662214
C10	C	0.717800	0.683700	0.631600	0.540011
C11	C	0.911000	0.739900	0.599300	-0.121828
C12	C	0.937100	0.863400	0.624400	0.662214
C13	C	0.337900	0.507800	0.684500	0.540011
C14	C	0.343400	0.363600	0.778700	-0.124857
C15	C	0.256600	0.264200	0.713400	0.654925
C16	C	0.360200	0.053000	0.563100	0.180768
C17	C	0.473200	0.062000	0.609100	-0.231108
C18	C	0.513300	0.987600	0.659400	0.145448
C19	C	0.426400	0.897200	0.660000	-0.231108
C20	C	0.311100	0.891600	0.609600	0.180768
C21	C	0.646900	0.997400	0.704500	-0.195536
C22	C	0.672100	0.974600	0.803000	-0.080008
C23	C	0.814600	0.980900	0.847700	-0.195536
C24	C	0.833300	0.973000	0.952600	0.145448
C25	C	0.845800	0.062000	0.028400	-0.231108
C26	C	0.860300	0.049200	0.122800	0.180093
C27	C	0.860000	0.868800	0.074800	0.180093
C28	C	0.840800	0.874500	0.978700	-0.231108
C29	C	0.603000	0.369500	0.521800	-0.153067
C30	C	0.477700	0.336800	0.490700	-0.015141
C31	C	0.412500	0.350300	0.403600	-0.153067
C32	C	0.471900	0.399100	0.345700	-0.015141
C33	C	0.592400	0.433200	0.372300	-0.153067
C34	C	0.660600	0.415600	0.459800	-0.015141
C35	C	0.668900	0.351300	0.619300	0.540011
C36	C	0.862900	0.327600	0.717100	-0.121828
C37	C	0.905300	0.223200	0.680500	0.662214
C38	C	0.282200	0.316300	0.368400	0.540011
C39	C	0.089000	0.260100	0.400700	-0.121828
C40	C	0.062900	0.136600	0.375600	0.662214
C41	C	0.662100	0.492200	0.315500	0.540011
C42	C	0.656600	0.636400	0.221300	-0.124857
C43	C	0.743400	0.735800	0.286600	0.654925
C44	C	0.639800	0.947000	0.436900	0.180768
C45	C	0.526800	0.938000	0.390900	-0.231108
C46	C	0.486700	0.012400	0.340600	0.145448
C47	C	0.573600	0.102800	0.340000	-0.231108
C48	C	0.688900	0.108400	0.390400	0.180768
C49	C	0.353100	0.002600	0.295500	-0.195536
C50	C	0.327900	0.025400	0.197000	-0.080008
C51	C	0.185400	0.019100	0.152300	-0.195536
C52	C	0.166700	0.027000	0.047400	0.145448
C53	C	0.154200	0.938000	0.971600	-0.231108
C54	C	0.139700	0.950800	0.877200	0.180093
C55	C	0.140000	0.131200	0.925200	0.180093
C56	C	0.159200	0.125500	0.021300	-0.231108
N1	N	0.213100	0.636400	0.359600	-0.384937
N2	N	0.782400	0.698900	0.569700	-0.384937
N3	N	0.396400	0.435700	0.724500	-0.382607
N4	N	0.275100	0.966900	0.562500	-0.323073
N5	N	0.871200	0.953300	0.147200	-0.322514
N6	N	0.786900	0.363600	0.640400	-0.384937
N7	N	0.217600	0.301100	0.430300	-0.384937
N8	N	0.603600	0.564300	0.275500	-0.382607
N9	N	0.724900	0.033100	0.437500	-0.323073
N10	N	0.128800	0.046700	0.852800	-0.322514
O1	O	0.389400	0.675000	0.323400	-0.508405
O2	O	0.125000	0.812200	0.409000	-0.565094
O3	O	0.033500	0.816500	0.256670	-0.566009
O4	O	0.768200	0.696900	0.722380	-0.508405
O5	O	0.857400	0.919000	0.603060	-0.565094
O6	O	0.048500	0.903200	0.664700	-0.566009
O7	O	0.239500	0.521900	0.693150	-0.508405
O8	O	0.219000	0.258600	0.624770	-0.625714
O9	O	0.230800	0.192600	0.758200	-0.582614
O10	O	0.931700	0.927700	0.423180	-0.714218
O11	O	0.610600	0.325000	0.676600	-0.508405
O12	O	0.875000	0.187800	0.591000	-0.565094
O13	O	0.966500	0.183500	0.743330	-0.566009
O14	O	0.231800	0.303100	0.277620	-0.508405
O15	O	0.142600	0.081000	0.396940	-0.565094
O16	O	0.951500	0.096800	0.335300	-0.566009
O17	O	0.760500	0.478100	0.306850	-0.508405
O18	O	0.781000	0.741400	0.375230	-0.625714
O19	O	0.769200	0.807400	0.241800	-0.582614
O20	O	0.068300	0.072300	0.576820	-0.714218
