data_FELVID_clean_PM
_symmetry_space_group_name_H-M	'P1'
_cell_length_a	18.726900
_cell_length_b	18.726900
_cell_length_c	18.726900
_cell_angle_alpha	60.000000
_cell_angle_beta	60.000000
_cell_angle_gamma	60.000001
_symmetry_Int_Tables_number 1

loop_
_symmetry_equiv_pos_as_xyz
'x,y,z'

loop_
_atom_site_label
_atom_site_type_symbol
_atom_site_fract_x
_atom_site_fract_y
_atom_site_fract_z
_atom_site_charge
Ca1	Ca	0.500000	0.500000	0.500000	1.465113
Ca2	Ca	0.000000	0.000000	0.500000	1.465113
Ca3	Ca	0.000000	0.500000	0.000000	1.465113
Ca4	Ca	0.000000	0.500000	0.500000	1.465113
Ca5	Ca	0.500000	0.500000	0.000000	1.465113
Ca6	Ca	0.000000	0.000000	0.000000	1.465113
Ca7	Ca	0.500000	0.000000	0.500000	1.465113
Ca8	Ca	0.500000	0.000000	0.000000	1.465113
Er1	Er	0.750000	0.250000	0.250000	1.161485
Er2	Er	0.750000	0.250000	0.750000	1.161485
Er3	Er	0.750000	0.750000	0.250000	1.161485
Er4	Er	0.250000	0.250000	0.250000	1.161485
Er5	Er	0.250000	0.750000	0.750000	1.161485
Er6	Er	0.250000	0.750000	0.250000	1.161485
Er7	Er	0.250000	0.250000	0.750000	1.161485
Er8	Er	0.750000	0.750000	0.750000	1.161485
H1	H	0.516600	0.415400	0.344800	0.124433
H2	H	0.576300	0.473700	0.294900	0.124433
H3	H	0.915400	0.016600	0.723200	0.124433
H4	H	0.973700	0.076300	0.655100	0.124433
H5	H	0.844800	0.723200	0.016600	0.124433
H6	H	0.794900	0.655100	0.076300	0.124433
H7	H	0.223200	0.344800	0.415400	0.124433
H8	H	0.155100	0.294900	0.473700	0.124433
H9	H	0.516600	0.344800	0.723200	0.124433
H10	H	0.576300	0.294900	0.655100	0.124433
H11	H	0.915400	0.723200	0.344800	0.124433
H12	H	0.973700	0.655100	0.294900	0.124433
H13	H	0.844800	0.016600	0.415400	0.124433
H14	H	0.794900	0.076300	0.473700	0.124433
H15	H	0.223200	0.415400	0.016600	0.124433
H16	H	0.155100	0.473700	0.076300	0.124433
H17	H	0.516600	0.723200	0.415400	0.124433
H18	H	0.576300	0.655100	0.473700	0.124433
H19	H	0.915400	0.344800	0.016600	0.124433
H20	H	0.973700	0.294900	0.076300	0.124433
H21	H	0.844800	0.415400	0.723200	0.124433
H22	H	0.794900	0.473700	0.655100	0.124433
H23	H	0.223200	0.016600	0.344800	0.124433
H24	H	0.155100	0.076300	0.294900	0.124433
H25	H	0.584600	0.483400	0.155200	0.124433
H26	H	0.526300	0.423700	0.205100	0.124433
H27	H	0.983400	0.084600	0.776800	0.124433
H28	H	0.923700	0.026300	0.844900	0.124433
H29	H	0.276800	0.155200	0.483400	0.124433
H30	H	0.344900	0.205100	0.423700	0.124433
H31	H	0.655200	0.776800	0.084600	0.124433
H32	H	0.705100	0.844900	0.026300	0.124433
H33	H	0.655200	0.483400	0.776800	0.124433
H34	H	0.705100	0.423700	0.844900	0.124433
H35	H	0.276800	0.084600	0.155200	0.124433
H36	H	0.344900	0.026300	0.205100	0.124433
H37	H	0.983400	0.155200	0.084600	0.124433
H38	H	0.923700	0.205100	0.026300	0.124433
H39	H	0.584600	0.776800	0.483400	0.124433
H40	H	0.526300	0.844900	0.423700	0.124433
H41	H	0.276800	0.483400	0.084600	0.124433
H42	H	0.344900	0.423700	0.026300	0.124433
H43	H	0.655200	0.084600	0.483400	0.124433
H44	H	0.705100	0.026300	0.423700	0.124433
H45	H	0.584600	0.155200	0.776800	0.124433
H46	H	0.526300	0.205100	0.844900	0.124433
H47	H	0.983400	0.776800	0.155200	0.124433
H48	H	0.923700	0.844900	0.205100	0.124433
H49	H	0.483400	0.584600	0.655200	0.124433
H50	H	0.423700	0.526300	0.705100	0.124433
H51	H	0.084600	0.983400	0.276800	0.124433
H52	H	0.026300	0.923700	0.344900	0.124433
H53	H	0.155200	0.276800	0.983400	0.124433
H54	H	0.205100	0.344900	0.923700	0.124433
H55	H	0.776800	0.655200	0.584600	0.124433
H56	H	0.844900	0.705100	0.526300	0.124433
H57	H	0.483400	0.655200	0.276800	0.124433
H58	H	0.423700	0.705100	0.344900	0.124433
H59	H	0.084600	0.276800	0.655200	0.124433
H60	H	0.026300	0.344900	0.705100	0.124433
H61	H	0.155200	0.983400	0.584600	0.124433
H62	H	0.205100	0.923700	0.526300	0.124433
H63	H	0.776800	0.584600	0.983400	0.124433
H64	H	0.844900	0.526300	0.923700	0.124433
H65	H	0.483400	0.276800	0.584600	0.124433
H66	H	0.423700	0.344900	0.526300	0.124433
H67	H	0.084600	0.655200	0.983400	0.124433
H68	H	0.026300	0.705100	0.923700	0.124433
H69	H	0.155200	0.584600	0.276800	0.124433
H70	H	0.205100	0.526300	0.344900	0.124433
H71	H	0.776800	0.983400	0.655200	0.124433
H72	H	0.844900	0.923700	0.705100	0.124433
H73	H	0.415400	0.516600	0.844800	0.124433
H74	H	0.473700	0.576300	0.794900	0.124433
H75	H	0.016600	0.915400	0.223200	0.124433
H76	H	0.076300	0.973700	0.155100	0.124433
H77	H	0.723200	0.844800	0.516600	0.124433
H78	H	0.655100	0.794900	0.576300	0.124433
H79	H	0.344800	0.223200	0.915400	0.124433
H80	H	0.294900	0.155100	0.973700	0.124433
H81	H	0.344800	0.516600	0.223200	0.124433
H82	H	0.294900	0.576300	0.155100	0.124433
H83	H	0.723200	0.915400	0.844800	0.124433
H84	H	0.655100	0.973700	0.794900	0.124433
H85	H	0.016600	0.844800	0.915400	0.124433
H86	H	0.076300	0.794900	0.973700	0.124433
H87	H	0.415400	0.223200	0.516600	0.124433
H88	H	0.473700	0.155100	0.576300	0.124433
H89	H	0.723200	0.516600	0.915400	0.124433
H90	H	0.655100	0.576300	0.973700	0.124433
H91	H	0.344800	0.915400	0.516600	0.124433
H92	H	0.294900	0.973700	0.576300	0.124433
H93	H	0.415400	0.844800	0.223200	0.124433
H94	H	0.473700	0.794900	0.155100	0.124433
H95	H	0.016600	0.223200	0.844800	0.124433
H96	H	0.076300	0.155100	0.794900	0.124433
C1	C	0.576700	0.414140	0.318060	-0.070978
C2	C	0.621200	0.359520	0.385080	0.700819
C3	C	0.914140	0.076700	0.691100	-0.070978
C4	C	0.859520	0.121200	0.634200	0.700819
C5	C	0.818060	0.691100	0.076700	-0.070978
C6	C	0.885080	0.634200	0.121200	0.700819
C7	C	0.191100	0.318060	0.414140	-0.070978
C8	C	0.134200	0.385080	0.359520	0.700819
C9	C	0.576700	0.318060	0.691100	-0.070978
C10	C	0.621200	0.385080	0.634200	0.700819
C11	C	0.914140	0.691100	0.318060	-0.070978
C12	C	0.859520	0.634200	0.385080	0.700819
C13	C	0.818060	0.076700	0.414140	-0.070978
C14	C	0.885080	0.121200	0.359520	0.700819
C15	C	0.191100	0.414140	0.076700	-0.070978
C16	C	0.134200	0.359520	0.121200	0.700819
C17	C	0.576700	0.691100	0.414140	-0.070978
C18	C	0.621200	0.634200	0.359520	0.700819
C19	C	0.914140	0.318060	0.076700	-0.070978
C20	C	0.859520	0.385080	0.121200	0.700819
C21	C	0.818060	0.414140	0.691100	-0.070978
C22	C	0.885080	0.359520	0.634200	0.700819
C23	C	0.191100	0.076700	0.318060	-0.070978
C24	C	0.134200	0.121200	0.385080	0.700819
C25	C	0.585860	0.423300	0.181940	-0.070978
C26	C	0.640480	0.378800	0.114920	0.700819
C27	C	0.923300	0.085860	0.808900	-0.070978
C28	C	0.878800	0.140480	0.865800	0.700819
C29	C	0.308900	0.181940	0.423300	-0.070978
C30	C	0.365800	0.114920	0.378800	0.700819
C31	C	0.681940	0.808900	0.085860	-0.070978
C32	C	0.614920	0.865800	0.140480	0.700819
C33	C	0.681940	0.423300	0.808900	-0.070978
C34	C	0.614920	0.378800	0.865800	0.700819
C35	C	0.308900	0.085860	0.181940	-0.070978
C36	C	0.365800	0.140480	0.114920	0.700819
C37	C	0.923300	0.181940	0.085860	-0.070978
C38	C	0.878800	0.114920	0.140480	0.700819
C39	C	0.585860	0.808900	0.423300	-0.070978
C40	C	0.640480	0.865800	0.378800	0.700819
C41	C	0.308900	0.423300	0.085860	-0.070978
C42	C	0.365800	0.378800	0.140480	0.700819
C43	C	0.681940	0.085860	0.423300	-0.070978
C44	C	0.614920	0.140480	0.378800	0.700819
C45	C	0.585860	0.181940	0.808900	-0.070978
C46	C	0.640480	0.114920	0.865800	0.700819
C47	C	0.923300	0.808900	0.181940	-0.070978
C48	C	0.878800	0.865800	0.114920	0.700819
C49	C	0.423300	0.585860	0.681940	-0.070978
C50	C	0.378800	0.640480	0.614920	0.700819
C51	C	0.085860	0.923300	0.308900	-0.070978
C52	C	0.140480	0.878800	0.365800	0.700819
C53	C	0.181940	0.308900	0.923300	-0.070978
C54	C	0.114920	0.365800	0.878800	0.700819
C55	C	0.808900	0.681940	0.585860	-0.070978
C56	C	0.865800	0.614920	0.640480	0.700819
C57	C	0.423300	0.681940	0.308900	-0.070978
C58	C	0.378800	0.614920	0.365800	0.700819
C59	C	0.085860	0.308900	0.681940	-0.070978
C60	C	0.140480	0.365800	0.614920	0.700819
C61	C	0.181940	0.923300	0.585860	-0.070978
C62	C	0.114920	0.878800	0.640480	0.700819
C63	C	0.808900	0.585860	0.923300	-0.070978
C64	C	0.865800	0.640480	0.878800	0.700819
C65	C	0.423300	0.308900	0.585860	-0.070978
C66	C	0.378800	0.365800	0.640480	0.700819
C67	C	0.085860	0.681940	0.923300	-0.070978
C68	C	0.140480	0.614920	0.878800	0.700819
C69	C	0.181940	0.585860	0.308900	-0.070978
C70	C	0.114920	0.640480	0.365800	0.700819
C71	C	0.808900	0.923300	0.681940	-0.070978
C72	C	0.865800	0.878800	0.614920	0.700819
C73	C	0.414140	0.576700	0.818060	-0.070978
C74	C	0.359520	0.621200	0.885080	0.700819
C75	C	0.076700	0.914140	0.191100	-0.070978
C76	C	0.121200	0.859520	0.134200	0.700819
C77	C	0.691100	0.818060	0.576700	-0.070978
C78	C	0.634200	0.885080	0.621200	0.700819
C79	C	0.318060	0.191100	0.914140	-0.070978
C80	C	0.385080	0.134200	0.859520	0.700819
C81	C	0.318060	0.576700	0.191100	-0.070978
C82	C	0.385080	0.621200	0.134200	0.700819
C83	C	0.691100	0.914140	0.818060	-0.070978
C84	C	0.634200	0.859520	0.885080	0.700819
C85	C	0.076700	0.818060	0.914140	-0.070978
C86	C	0.121200	0.885080	0.859520	0.700819
C87	C	0.414140	0.191100	0.576700	-0.070978
C88	C	0.359520	0.134200	0.621200	0.700819
C89	C	0.691100	0.576700	0.914140	-0.070978
C90	C	0.634200	0.621200	0.859520	0.700819
C91	C	0.318060	0.914140	0.576700	-0.070978
C92	C	0.385080	0.859520	0.621200	0.700819
C93	C	0.414140	0.818060	0.191100	-0.070978
C94	C	0.359520	0.885080	0.134200	0.700819
C95	C	0.076700	0.191100	0.818060	-0.070978
C96	C	0.121200	0.134200	0.885080	0.700819
O1	O	0.687590	0.294790	0.371810	-0.567101
O2	O	0.590220	0.380600	0.450800	-0.637765
O3	O	0.794790	0.187590	0.645810	-0.567101
O4	O	0.880600	0.090220	0.578380	-0.637765
O5	O	0.871810	0.645810	0.187590	-0.567101
O6	O	0.950800	0.578380	0.090220	-0.637765
O7	O	0.145810	0.371810	0.294790	-0.567101
O8	O	0.078380	0.450800	0.380600	-0.637765
O9	O	0.687590	0.371810	0.645810	-0.567101
O10	O	0.590220	0.450800	0.578380	-0.637765
O11	O	0.794790	0.645810	0.371810	-0.567101
O12	O	0.880600	0.578380	0.450800	-0.637765
O13	O	0.871810	0.187590	0.294790	-0.567101
O14	O	0.950800	0.090220	0.380600	-0.637765
O15	O	0.145810	0.294790	0.187590	-0.567101
O16	O	0.078380	0.380600	0.090220	-0.637765
O17	O	0.687590	0.645810	0.294790	-0.567101
O18	O	0.590220	0.578380	0.380600	-0.637765
O19	O	0.794790	0.371810	0.187590	-0.567101
O20	O	0.880600	0.450800	0.090220	-0.637765
O21	O	0.871810	0.294790	0.645810	-0.567101
O22	O	0.950800	0.380600	0.578380	-0.637765
O23	O	0.145810	0.187590	0.371810	-0.567101
O24	O	0.078380	0.090220	0.450800	-0.637765
O25	O	0.705210	0.312410	0.128190	-0.567101
O26	O	0.619400	0.409780	0.049200	-0.637765
O27	O	0.812410	0.205210	0.854190	-0.567101
O28	O	0.909780	0.119400	0.921620	-0.637765
O29	O	0.354190	0.128190	0.312410	-0.567101
O30	O	0.421620	0.049200	0.409780	-0.637765
O31	O	0.628190	0.854190	0.205210	-0.567101
O32	O	0.549200	0.921620	0.119400	-0.637765
O33	O	0.628190	0.312410	0.854190	-0.567101
O34	O	0.549200	0.409780	0.921620	-0.637765
O35	O	0.354190	0.205210	0.128190	-0.567101
O36	O	0.421620	0.119400	0.049200	-0.637765
O37	O	0.812410	0.128190	0.205210	-0.567101
O38	O	0.909780	0.049200	0.119400	-0.637765
O39	O	0.705210	0.854190	0.312410	-0.567101
O40	O	0.619400	0.921620	0.409780	-0.637765
O41	O	0.354190	0.312410	0.205210	-0.567101
O42	O	0.421620	0.409780	0.119400	-0.637765
O43	O	0.628190	0.205210	0.312410	-0.567101
O44	O	0.549200	0.119400	0.409780	-0.637765
O45	O	0.705210	0.128190	0.854190	-0.567101
O46	O	0.619400	0.049200	0.921620	-0.637765
O47	O	0.812410	0.854190	0.128190	-0.567101
O48	O	0.909780	0.921620	0.049200	-0.637765
O49	O	0.312410	0.705210	0.628190	-0.567101
O50	O	0.409780	0.619400	0.549200	-0.637765
O51	O	0.205210	0.812410	0.354190	-0.567101
O52	O	0.119400	0.909780	0.421620	-0.637765
O53	O	0.128190	0.354190	0.812410	-0.567101
O54	O	0.049200	0.421620	0.909780	-0.637765
O55	O	0.854190	0.628190	0.705210	-0.567101
O56	O	0.921620	0.549200	0.619400	-0.637765
O57	O	0.312410	0.628190	0.354190	-0.567101
O58	O	0.409780	0.549200	0.421620	-0.637765
O59	O	0.205210	0.354190	0.628190	-0.567101
O60	O	0.119400	0.421620	0.549200	-0.637765
O61	O	0.128190	0.812410	0.705210	-0.567101
O62	O	0.049200	0.909780	0.619400	-0.637765
O63	O	0.854190	0.705210	0.812410	-0.567101
O64	O	0.921620	0.619400	0.909780	-0.637765
O65	O	0.312410	0.354190	0.705210	-0.567101
O66	O	0.409780	0.421620	0.619400	-0.637765
O67	O	0.205210	0.628190	0.812410	-0.567101
O68	O	0.119400	0.549200	0.909780	-0.637765
O69	O	0.128190	0.705210	0.354190	-0.567101
O70	O	0.049200	0.619400	0.421620	-0.637765
O71	O	0.854190	0.812410	0.628190	-0.567101
O72	O	0.921620	0.909780	0.549200	-0.637765
O73	O	0.294790	0.687590	0.871810	-0.567101
O74	O	0.380600	0.590220	0.950800	-0.637765
O75	O	0.187590	0.794790	0.145810	-0.567101
O76	O	0.090220	0.880600	0.078380	-0.637765
O77	O	0.645810	0.871810	0.687590	-0.567101
O78	O	0.578380	0.950800	0.590220	-0.637765
O79	O	0.371810	0.145810	0.794790	-0.567101
O80	O	0.450800	0.078380	0.880600	-0.637765
O81	O	0.371810	0.687590	0.145810	-0.567101
O82	O	0.450800	0.590220	0.078380	-0.637765
O83	O	0.645810	0.794790	0.871810	-0.567101
O84	O	0.578380	0.880600	0.950800	-0.637765
O85	O	0.187590	0.871810	0.794790	-0.567101
O86	O	0.090220	0.950800	0.880600	-0.637765
O87	O	0.294790	0.145810	0.687590	-0.567101
O88	O	0.380600	0.078380	0.590220	-0.637765
O89	O	0.645810	0.687590	0.794790	-0.567101
O90	O	0.578380	0.590220	0.880600	-0.637765
O91	O	0.371810	0.794790	0.687590	-0.567101
O92	O	0.450800	0.880600	0.590220	-0.637765
O93	O	0.294790	0.871810	0.145810	-0.567101
O94	O	0.380600	0.950800	0.078380	-0.637765
O95	O	0.187590	0.145810	0.871810	-0.567101
O96	O	0.090220	0.078380	0.950800	-0.637765
O97	O	0.620360	0.379640	0.250000	-0.223215
O98	O	0.879640	0.120360	0.750000	-0.223215
O99	O	0.750000	0.750000	0.120360	-0.223215
O100	O	0.250000	0.250000	0.379640	-0.223215
O101	O	0.620360	0.250000	0.750000	-0.223215
O102	O	0.879640	0.750000	0.250000	-0.223215
O103	O	0.750000	0.120360	0.379640	-0.223215
O104	O	0.250000	0.379640	0.120360	-0.223215
O105	O	0.620360	0.750000	0.379640	-0.223215
O106	O	0.879640	0.250000	0.120360	-0.223215
O107	O	0.750000	0.379640	0.750000	-0.223215
O108	O	0.250000	0.120360	0.250000	-0.223215
O109	O	0.379640	0.620360	0.750000	-0.223215
O110	O	0.120360	0.879640	0.250000	-0.223215
O111	O	0.250000	0.250000	0.879640	-0.223215
O112	O	0.750000	0.750000	0.620360	-0.223215
O113	O	0.379640	0.750000	0.250000	-0.223215
O114	O	0.120360	0.250000	0.750000	-0.223215
O115	O	0.250000	0.879640	0.620360	-0.223215
O116	O	0.750000	0.620360	0.879640	-0.223215
O117	O	0.379640	0.250000	0.620360	-0.223215
O118	O	0.120360	0.750000	0.879640	-0.223215
O119	O	0.250000	0.620360	0.250000	-0.223215
O120	O	0.750000	0.879640	0.750000	-0.223215
