data_FIKTOK_clean_PM
_symmetry_space_group_name_H-M	'P1'
_cell_length_a	7.410600
_cell_length_b	16.621999
_cell_length_c	16.683000
_cell_angle_alpha	104.240000
_cell_angle_beta	101.490003
_cell_angle_gamma	98.669998
_symmetry_Int_Tables_number 1

loop_
_symmetry_equiv_pos_as_xyz
'x,y,z'

loop_
_atom_site_label
_atom_site_type_symbol
_atom_site_fract_x
_atom_site_fract_y
_atom_site_fract_z
_atom_site_charge
Cd1	Cd	0.486690	0.483000	0.627980	1.053226
Cd2	Cd	0.316490	0.955990	0.541580	1.132847
Cd3	Cd	0.509720	0.501250	0.881260	1.053226
Cd4	Cd	0.513310	0.517000	0.372020	1.053226
Cd5	Cd	0.683510	0.044010	0.458420	1.132847
Cd6	Cd	0.490280	0.498750	0.118740	1.053226
H1	H	0.396200	0.659300	0.574500	0.118073
H2	H	0.496500	0.804500	0.667500	0.133035
H3	H	0.702600	0.649700	0.790500	0.099819
H4	H	0.639100	0.913100	0.781300	0.122149
H5	H	0.820300	0.027200	0.888500	0.100933
H6	H	0.021000	0.870700	0.013700	0.100933
H7	H	0.848700	0.756100	0.903700	0.122149
H8	H	0.255600	0.317600	0.731300	0.118073
H9	H	0.226400	0.176600	0.749700	0.133035
H10	H	0.582400	0.339600	0.955100	0.099819
H11	H	0.598900	0.240100	0.020800	0.122149
H12	H	0.636600	0.131000	0.080400	0.100933
H13	H	0.326700	0.964800	0.865600	0.100933
H14	H	0.292800	0.072400	0.805300	0.122149
H15	H	0.999800	0.510400	0.630400	0.099976
H16	H	0.245700	0.722900	0.819800	0.123438
H17	H	0.908600	0.736000	0.606200	0.123438
H18	H	0.903600	0.851200	0.681200	0.097637
H19	H	0.023200	0.933100	0.751900	0.097637
H20	H	0.038000	0.252000	0.926400	0.123438
H21	H	0.689800	0.247300	0.706400	0.123438
H22	H	0.978400	0.470400	0.872600	0.099976
H23	H	0.633300	0.043100	0.738300	0.099841
H24	H	0.578700	0.123500	0.715300	0.099841
H25	H	0.603800	0.340700	0.425500	0.118073
H26	H	0.503500	0.195500	0.332500	0.133035
H27	H	0.297400	0.350300	0.209500	0.099819
H28	H	0.360900	0.086900	0.218700	0.122149
H29	H	0.179700	0.972800	0.111500	0.100933
H30	H	0.979000	0.129300	0.986300	0.100933
H31	H	0.151300	0.243900	0.096300	0.122149
H32	H	0.744400	0.682400	0.268700	0.118073
H33	H	0.773600	0.823400	0.250300	0.133035
H34	H	0.417600	0.660400	0.044900	0.099819
H35	H	0.401100	0.759900	0.979200	0.122149
H36	H	0.363400	0.869000	0.919600	0.100933
H37	H	0.673300	0.035200	0.134400	0.100933
H38	H	0.707200	0.927600	0.194700	0.122149
H39	H	0.000200	0.489600	0.369600	0.099976
H40	H	0.754300	0.277100	0.180200	0.123438
H41	H	0.091400	0.264000	0.393800	0.123438
H42	H	0.096400	0.148800	0.318800	0.097637
H43	H	0.976800	0.066900	0.248100	0.097637
H44	H	0.962000	0.748000	0.073600	0.123438
H45	H	0.310200	0.752700	0.293600	0.123438
H46	H	0.021600	0.529600	0.127400	0.099976
H47	H	0.366700	0.956900	0.261700	0.099841
H48	H	0.421300	0.876500	0.284700	0.099841
C1	C	0.471000	0.675800	0.630000	0.064005
C2	C	0.525400	0.756100	0.681000	-0.144705
C3	C	0.638700	0.670000	0.748300	0.132679
C4	C	0.731600	0.822700	0.829400	0.127318
C5	C	0.719800	0.904400	0.827400	-0.144331
C6	C	0.825900	0.972800	0.892500	-0.082698
C7	C	0.942000	0.963200	0.964700	0.028032
C8	C	0.946000	0.879800	0.966300	-0.082698
C9	C	0.843100	0.810800	0.900400	-0.144331
C10	C	0.317500	0.304100	0.778900	0.064005
C11	C	0.300300	0.226400	0.788600	-0.144705
C12	C	0.497100	0.317000	0.902100	0.132679
C13	C	0.439700	0.166900	0.906100	0.127318
C14	C	0.543900	0.184300	0.989000	-0.144331
C15	C	0.566100	0.118400	0.024400	-0.082698
C16	C	0.488400	0.035100	0.980400	0.028032
C17	C	0.383900	0.020300	0.897700	-0.082698
C18	C	0.362100	0.085000	0.861500	-0.144331
C19	C	0.258000	0.559700	0.776600	0.631836
C20	C	0.785500	0.572700	0.525100	0.631836
C21	C	0.928700	0.616700	0.606700	-0.097607
C22	C	0.020800	0.569000	0.652500	-0.051930
C23	C	0.143800	0.609500	0.731300	-0.097607
C24	C	0.168700	0.696300	0.765500	-0.184535
C25	C	0.078600	0.743600	0.718600	0.231416
C26	C	0.963500	0.704000	0.638800	-0.184535
C27	C	0.030900	0.880900	0.712300	-0.073608
C28	C	0.140300	0.902300	0.649800	0.688799
C29	C	0.708300	0.413300	0.731100	0.675265
C30	C	0.193600	0.415800	0.986500	0.675265
C31	C	0.037800	0.368100	0.910300	-0.119549
C32	C	0.985600	0.280500	0.889200	-0.183376
C33	C	0.856100	0.234700	0.813400	0.231416
C34	C	0.772700	0.277400	0.758600	-0.183376
C35	C	0.815400	0.365600	0.783200	-0.119549
C36	C	0.948700	0.411400	0.857800	-0.048937
C37	C	0.682200	0.095000	0.726000	-0.072990
C38	C	0.752700	0.072100	0.646100	0.668477
C39	C	0.529000	0.324200	0.370000	0.064005
C40	C	0.474600	0.243900	0.319000	-0.144705
C41	C	0.361300	0.330000	0.251700	0.132679
C42	C	0.268400	0.177300	0.170600	0.127318
C43	C	0.280200	0.095600	0.172600	-0.144331
C44	C	0.174100	0.027200	0.107500	-0.082698
C45	C	0.058000	0.036800	0.035300	0.028032
C46	C	0.054000	0.120200	0.033700	-0.082698
C47	C	0.156900	0.189200	0.099600	-0.144331
C48	C	0.682500	0.695900	0.221100	0.064005
C49	C	0.699700	0.773600	0.211400	-0.144705
C50	C	0.502900	0.683000	0.097900	0.132679
C51	C	0.560300	0.833100	0.093900	0.127318
C52	C	0.456100	0.815700	0.011000	-0.144331
C53	C	0.433900	0.881600	0.975600	-0.082698
C54	C	0.511600	0.964900	0.019600	0.028032
C55	C	0.616100	0.979700	0.102300	-0.082698
C56	C	0.637900	0.915000	0.138500	-0.144331
C57	C	0.742000	0.440300	0.223400	0.631836
C58	C	0.214500	0.427300	0.474900	0.631836
C59	C	0.071300	0.383300	0.393300	-0.097607
C60	C	0.979200	0.431000	0.347500	-0.051930
C61	C	0.856200	0.390500	0.268700	-0.097607
C62	C	0.831300	0.303700	0.234500	-0.184535
C63	C	0.921400	0.256400	0.281400	0.231416
C64	C	0.036500	0.296000	0.361200	-0.184535
C65	C	0.969100	0.119100	0.287700	-0.073608
C66	C	0.859700	0.097700	0.350200	0.688799
C67	C	0.291700	0.586700	0.268900	0.675265
C68	C	0.806400	0.584200	0.013500	0.675265
C69	C	0.962200	0.631900	0.089700	-0.119549
C70	C	0.014400	0.719500	0.110800	-0.183376
C71	C	0.143900	0.765300	0.186600	0.231416
C72	C	0.227300	0.722600	0.241400	-0.183376
C73	C	0.184600	0.634400	0.216800	-0.119549
C74	C	0.051300	0.588600	0.142200	-0.048937
C75	C	0.317800	0.905000	0.274000	-0.072990
C76	C	0.247300	0.927900	0.353900	0.668477
N1	N	0.542700	0.622000	0.672300	-0.410102
N2	N	0.633200	0.752300	0.757700	0.041018
N3	N	0.440600	0.361800	0.850100	-0.410102
N4	N	0.414500	0.234400	0.868200	0.041018
N5	N	0.457300	0.378000	0.327700	-0.410102
N6	N	0.366800	0.247700	0.242300	0.041018
N7	N	0.559400	0.638200	0.149900	-0.410102
N8	N	0.585500	0.765600	0.131800	0.041018
O1	O	0.696500	0.499700	0.514700	-0.605281
O2	O	0.753000	0.612600	0.469300	-0.584469
O3	O	0.279000	0.488800	0.735600	-0.605281
O4	O	0.337400	0.594200	0.854700	-0.584469
O5	O	0.115800	0.829300	0.759200	-0.237367
O6	O	0.313000	0.926100	0.673100	-0.596992
O7	O	0.045600	0.897900	0.576000	-0.596992
O8	O	0.685100	0.485100	0.767100	-0.601331
O9	O	0.643000	0.379400	0.652000	-0.601331
O10	O	0.235800	0.383900	0.046300	-0.601331
O11	O	0.285500	0.486900	0.986900	-0.601331
O12	O	0.822200	0.148400	0.799500	-0.235378
O13	O	0.913900	0.100300	0.645100	-0.573254
O14	O	0.628900	0.022800	0.580500	-0.682412
O15	O	0.303500	0.500300	0.485300	-0.605281
O16	O	0.247000	0.387400	0.530700	-0.584469
O17	O	0.721000	0.511200	0.264400	-0.605281
O18	O	0.662600	0.405800	0.145300	-0.584469
O19	O	0.884200	0.170700	0.240800	-0.237367
O20	O	0.687000	0.073900	0.326900	-0.596992
O21	O	0.954400	0.102100	0.424000	-0.596992
O22	O	0.314900	0.514900	0.232900	-0.601331
O23	O	0.357000	0.620600	0.348000	-0.601331
O24	O	0.764200	0.616100	0.953700	-0.601331
O25	O	0.714500	0.513100	0.013100	-0.601331
O26	O	0.177800	0.851600	0.200500	-0.235378
O27	O	0.086100	0.899700	0.354900	-0.573254
O28	O	0.371100	0.977200	0.419500	-0.682412
