data_FIQYOU_clean_PM
_symmetry_space_group_name_H-M	'P1'
_cell_length_a	9.930400
_cell_length_b	11.444600
_cell_length_c	14.619200
_cell_angle_alpha	91.422999
_cell_angle_beta	90.000000
_cell_angle_gamma	90.000000
_symmetry_Int_Tables_number 1

loop_
_symmetry_equiv_pos_as_xyz
'x,y,z'

loop_
_atom_site_label
_atom_site_type_symbol
_atom_site_fract_x
_atom_site_fract_y
_atom_site_fract_z
_atom_site_charge
Fe1	Fe	0.918800	0.755530	0.632400	1.034453
Fe2	Fe	0.607310	0.760050	0.687700	1.008104
Fe3	Fe	0.418800	0.744470	0.867600	1.034453
Fe4	Fe	0.107310	0.739950	0.812300	1.008104
Fe5	Fe	0.081200	0.244470	0.367600	1.034453
Fe6	Fe	0.392690	0.239950	0.312300	1.008104
Fe7	Fe	0.581200	0.255530	0.132400	1.034453
Fe8	Fe	0.892690	0.260050	0.187700	1.008104
Fe9	Fe	0.000000	0.500000	0.500000	1.127987
Fe10	Fe	0.500000	0.000000	0.000000	1.127987
Fe11	Fe	0.000000	0.000000	0.500000	1.127987
Fe12	Fe	0.500000	0.500000	0.000000	1.127987
H1	H	0.149000	0.713000	0.426000	0.016903
H2	H	0.695000	0.986000	0.502000	0.016405
H3	H	0.742000	0.854000	0.868000	0.016563
H4	H	0.613000	0.546000	0.537000	0.017051
H5	H	0.176000	0.973000	0.726000	0.017051
H6	H	0.049000	0.479000	0.765000	0.017051
H7	H	0.649000	0.787000	0.074000	0.016903
H8	H	0.195000	0.514000	0.998000	0.016405
H9	H	0.242000	0.646000	0.632000	0.016563
H10	H	0.113000	0.954000	0.963000	0.017051
H11	H	0.676000	0.527000	0.774000	0.017051
H12	H	0.549000	0.021000	0.735000	0.017051
H13	H	0.851000	0.287000	0.574000	0.016903
H14	H	0.305000	0.014000	0.498000	0.016405
H15	H	0.258000	0.146000	0.132000	0.016563
H16	H	0.387000	0.454000	0.463000	0.017051
H17	H	0.824000	0.027000	0.274000	0.017051
H18	H	0.951000	0.521000	0.235000	0.017051
H19	H	0.351000	0.213000	0.926000	0.016903
H20	H	0.805000	0.486000	0.002000	0.016405
H21	H	0.758000	0.354000	0.368000	0.016563
H22	H	0.887000	0.046000	0.037000	0.017051
H23	H	0.324000	0.473000	0.226000	0.017051
H24	H	0.451000	0.979000	0.265000	0.017051
C1	C	0.103700	0.744000	0.468200	0.661908
C2	C	0.718300	0.928400	0.549600	0.663854
C3	C	0.824300	0.829100	0.830900	0.662285
C4	C	0.710500	0.574000	0.548200	0.660480
C5	C	0.123500	0.955100	0.688900	0.660480
C6	C	0.014900	0.519600	0.711400	0.660480
C7	C	0.603700	0.756000	0.031800	0.661908
C8	C	0.218300	0.571600	0.950400	0.663854
C9	C	0.324300	0.670900	0.669100	0.662285
C10	C	0.210500	0.926000	0.951800	0.660480
C11	C	0.623500	0.544900	0.811100	0.660480
C12	C	0.514900	0.980400	0.788600	0.660480
C13	C	0.896300	0.256000	0.531800	0.661908
C14	C	0.281700	0.071600	0.450400	0.663854
C15	C	0.175700	0.170900	0.169100	0.662285
C16	C	0.289500	0.426000	0.451800	0.660480
C17	C	0.876500	0.044900	0.311100	0.660480
C18	C	0.985100	0.480400	0.288600	0.660480
C19	C	0.396300	0.244000	0.968200	0.661908
C20	C	0.781700	0.428400	0.049600	0.663854
C21	C	0.675700	0.329100	0.330900	0.662285
C22	C	0.789500	0.074000	0.048200	0.660480
C23	C	0.376500	0.455100	0.188900	0.660480
C24	C	0.485100	0.019600	0.211400	0.660480
O1	O	0.027100	0.687200	0.521700	-0.659620
O2	O	0.112300	0.850300	0.463000	-0.548914
O3	O	0.841600	0.897600	0.559800	-0.660280
O4	O	0.621200	0.888400	0.591000	-0.553202
O5	O	0.797800	0.806900	0.747100	-0.655236
O6	O	0.934800	0.813900	0.868700	-0.553671
O7	O	0.740600	0.652400	0.606700	-0.654132
O8	O	0.791200	0.516600	0.499800	-0.549245
O9	O	0.082000	0.851100	0.696800	-0.654132
O10	O	0.100400	0.021600	0.626900	-0.549245
O11	O	0.003400	0.628100	0.718500	-0.654132
O12	O	0.003600	0.458600	0.640500	-0.549245
O13	O	0.527100	0.812800	0.978300	-0.659620
O14	O	0.612300	0.649700	0.037000	-0.548914
O15	O	0.341600	0.602400	0.940200	-0.660280
O16	O	0.121200	0.611600	0.909000	-0.553202
O17	O	0.297800	0.693100	0.752900	-0.655236
O18	O	0.434800	0.686100	0.631300	-0.553671
O19	O	0.240600	0.847600	0.893300	-0.654132
O20	O	0.291200	0.983400	0.000200	-0.549245
O21	O	0.582000	0.648900	0.803200	-0.654132
O22	O	0.600400	0.478400	0.873100	-0.549245
O23	O	0.503400	0.871900	0.781500	-0.654132
O24	O	0.503600	0.041400	0.859500	-0.549245
O25	O	0.972900	0.312800	0.478300	-0.659620
O26	O	0.887700	0.149700	0.537000	-0.548914
O27	O	0.158400	0.102400	0.440200	-0.660280
O28	O	0.378800	0.111600	0.409000	-0.553202
O29	O	0.202200	0.193100	0.252900	-0.655236
O30	O	0.065200	0.186100	0.131300	-0.553671
O31	O	0.259400	0.347600	0.393300	-0.654132
O32	O	0.208800	0.483400	0.500200	-0.549245
O33	O	0.918000	0.148900	0.303200	-0.654132
O34	O	0.899600	0.978400	0.373100	-0.549245
O35	O	0.996600	0.371900	0.281500	-0.654132
O36	O	0.996400	0.541400	0.359500	-0.549245
O37	O	0.472900	0.187200	0.021700	-0.659620
O38	O	0.387700	0.350300	0.963000	-0.548914
O39	O	0.658400	0.397600	0.059800	-0.660280
O40	O	0.878800	0.388400	0.091000	-0.553202
O41	O	0.702200	0.306900	0.247100	-0.655236
O42	O	0.565200	0.313900	0.368700	-0.553671
O43	O	0.759400	0.152400	0.106700	-0.654132
O44	O	0.708800	0.016600	0.999800	-0.549245
O45	O	0.418000	0.351100	0.196800	-0.654132
O46	O	0.399600	0.521600	0.126900	-0.549245
O47	O	0.496600	0.128100	0.218500	-0.654132
O48	O	0.496400	0.958600	0.140500	-0.549245
