data_FIVYEP01_clean_PM
_symmetry_space_group_name_H-M	'P1'
_cell_length_a	12.068200
_cell_length_b	12.068200
_cell_length_c	14.614000
_cell_angle_alpha	86.173900
_cell_angle_beta	86.173900
_cell_angle_gamma	64.283997
_symmetry_Int_Tables_number 1

loop_
_symmetry_equiv_pos_as_xyz
'x,y,z'

loop_
_atom_site_label
_atom_site_type_symbol
_atom_site_fract_x
_atom_site_fract_y
_atom_site_fract_z
_atom_site_charge
K1	K	0.212320	0.212320	0.435040	0.994111
K2	K	0.061320	0.061320	0.591040	0.967763
K3	K	0.787680	0.787680	0.564960	0.994111
K4	K	0.938680	0.938680	0.408960	0.967763
U1	U	0.443620	0.945800	0.210960	2.473377
U2	U	0.054200	0.556380	0.789040	2.473377
U3	U	0.556380	0.054200	0.789040	2.473377
U4	U	0.945800	0.443620	0.210960	2.473377
C1	C	0.222700	0.866900	0.276100	0.533367
C2	C	0.226200	0.945600	0.352500	0.525215
C3	C	0.435300	0.140700	0.590500	0.532987
C4	C	0.385600	0.047600	0.628300	0.510587
C5	C	0.515900	0.052100	0.013900	0.542571
C6	C	0.133100	0.777300	0.723900	0.533367
C7	C	0.054400	0.773800	0.647500	0.525215
C8	C	0.859300	0.564700	0.409500	0.532987
C9	C	0.952400	0.614400	0.371700	0.510587
C10	C	0.947900	0.484100	0.986100	0.542571
C11	C	0.777300	0.133100	0.723900	0.533367
C12	C	0.773800	0.054400	0.647500	0.525215
C13	C	0.564700	0.859300	0.409500	0.532987
C14	C	0.614400	0.952400	0.371700	0.510587
C15	C	0.484100	0.947900	0.986100	0.542571
C16	C	0.866900	0.222700	0.276100	0.533367
C17	C	0.945600	0.226200	0.352500	0.525215
C18	C	0.140700	0.435300	0.590500	0.532987
C19	C	0.047600	0.385600	0.628300	0.510587
C20	C	0.052100	0.515900	0.013900	0.542571
C21	C	0.188000	0.188000	0.148800	0.542571
C22	C	0.242000	0.242000	0.215700	0.542571
C23	C	0.812000	0.812000	0.851200	0.542571
C24	C	0.758000	0.758000	0.784300	0.542571
C25	C	0.654200	0.654200	0.186300	0.542571
C26	C	0.729200	0.729200	0.174000	0.542571
C27	C	0.345800	0.345800	0.813700	0.542571
C28	C	0.270800	0.270800	0.826000	0.542571
O1	O	0.301250	0.853250	0.210400	-0.596176
O2	O	0.286200	0.008800	0.330000	-0.619792
O3	O	0.175500	0.942500	0.428800	-0.285849
O4	O	0.146900	0.823500	0.282600	-0.370790
O5	O	0.437950	0.987550	0.700200	-0.576280
O6	O	0.483200	0.174400	0.652100	-0.592189
O7	O	0.303200	0.036800	0.589200	-0.316842
O8	O	0.426800	0.175600	0.508800	-0.431744
O9	O	0.255000	0.081000	0.124700	-0.565753
O10	O	0.347880	0.174280	0.241200	-0.565753
O11	O	0.539120	0.713920	0.190100	-0.565753
O12	O	0.669910	0.843510	0.169500	-0.565753
O13	O	0.510310	0.069510	0.097900	-0.565753
O14	O	0.543880	0.110880	0.950300	-0.565753
O15	O	0.146750	0.698750	0.789600	-0.596176
O16	O	0.991200	0.713800	0.670000	-0.619792
O17	O	0.057500	0.824500	0.571200	-0.285849
O18	O	0.176500	0.853100	0.717400	-0.370790
O19	O	0.012450	0.562050	0.299800	-0.576280
O20	O	0.825600	0.516800	0.347900	-0.592189
O21	O	0.963200	0.696800	0.410800	-0.316842
O22	O	0.824400	0.573200	0.491200	-0.431744
O23	O	0.919000	0.745000	0.875300	-0.565753
O24	O	0.825720	0.652120	0.758800	-0.565753
O25	O	0.286080	0.460880	0.809900	-0.565753
O26	O	0.156490	0.330090	0.830500	-0.565753
O27	O	0.930490	0.489690	0.902100	-0.565753
O28	O	0.889120	0.456120	0.049700	-0.565753
O29	O	0.698750	0.146750	0.789600	-0.596176
O30	O	0.713800	0.991200	0.670000	-0.619792
O31	O	0.824500	0.057500	0.571200	-0.285849
O32	O	0.853100	0.176500	0.717400	-0.370790
O33	O	0.562050	0.012450	0.299800	-0.576280
O34	O	0.516800	0.825600	0.347900	-0.592189
O35	O	0.696800	0.963200	0.410800	-0.316842
O36	O	0.573200	0.824400	0.491200	-0.431744
O37	O	0.745000	0.919000	0.875300	-0.565753
O38	O	0.652120	0.825720	0.758800	-0.565753
O39	O	0.460880	0.286080	0.809900	-0.565753
O40	O	0.330090	0.156490	0.830500	-0.565753
O41	O	0.489690	0.930490	0.902100	-0.565753
O42	O	0.456120	0.889120	0.049700	-0.565753
O43	O	0.853250	0.301250	0.210400	-0.596176
O44	O	0.008800	0.286200	0.330000	-0.619792
O45	O	0.942500	0.175500	0.428800	-0.285849
O46	O	0.823500	0.146900	0.282600	-0.370790
O47	O	0.987550	0.437950	0.700200	-0.576280
O48	O	0.174400	0.483200	0.652100	-0.592189
O49	O	0.036800	0.303200	0.589200	-0.316842
O50	O	0.175600	0.426800	0.508800	-0.431744
O51	O	0.081000	0.255000	0.124700	-0.565753
O52	O	0.174280	0.347880	0.241200	-0.565753
O53	O	0.713920	0.539120	0.190100	-0.565753
O54	O	0.843510	0.669910	0.169500	-0.565753
O55	O	0.069510	0.510310	0.097900	-0.565753
O56	O	0.110880	0.543880	0.950300	-0.565753
