data_FUTCAZ_clean_PM
_symmetry_space_group_name_H-M	'P1'
_cell_length_a	12.793000
_cell_length_b	14.740000
_cell_length_c	15.183000
_cell_angle_alpha	90.000000
_cell_angle_beta	90.000000
_cell_angle_gamma	90.000000
_symmetry_Int_Tables_number 1

loop_
_symmetry_equiv_pos_as_xyz
'x,y,z'

loop_
_atom_site_label
_atom_site_type_symbol
_atom_site_fract_x
_atom_site_fract_y
_atom_site_fract_z
_atom_site_charge
Mn1	Mn	0.257470	0.717860	0.774200	1.340784
Mn2	Mn	0.060080	0.586750	0.913270	1.386160
Mn3	Mn	0.242530	0.282140	0.274200	1.340784
Mn4	Mn	0.439920	0.413250	0.413270	1.386160
Mn5	Mn	0.742530	0.217860	0.725800	1.340784
Mn6	Mn	0.939920	0.086750	0.586730	1.386160
Mn7	Mn	0.757470	0.782140	0.225800	1.340784
Mn8	Mn	0.560080	0.913250	0.086730	1.386160
H1	H	0.458700	0.704400	0.005500	0.097899
H2	H	0.510800	0.561500	0.225100	0.097899
H3	H	0.285300	0.483200	0.059600	0.097899
H4	H	0.041300	0.295600	0.505500	0.097899
H5	H	0.989200	0.438500	0.725100	0.097899
H6	H	0.214700	0.516800	0.559600	0.097899
H7	H	0.541300	0.204400	0.494500	0.097899
H8	H	0.489200	0.061500	0.274900	0.097899
H9	H	0.714700	0.983200	0.440400	0.097899
H10	H	0.958700	0.795600	0.994500	0.097899
H11	H	0.010800	0.938500	0.774900	0.097899
H12	H	0.785300	0.016800	0.940400	0.097899
C1	C	0.302800	0.607900	0.934000	0.733303
C2	C	0.363400	0.595300	0.017400	-0.206936
C3	C	0.442600	0.655500	0.041800	0.004715
C4	C	0.496800	0.643200	0.118900	-0.206936
C5	C	0.473300	0.570300	0.173400	0.004715
C6	C	0.393900	0.510400	0.150600	-0.206936
C7	C	0.339100	0.522900	0.074100	0.004715
C8	C	0.584200	0.706400	0.143500	0.733303
C9	C	0.370400	0.431400	0.210800	0.733303
C10	C	0.197200	0.392100	0.434000	0.733303
C11	C	0.136600	0.404700	0.517400	-0.206936
C12	C	0.057400	0.344500	0.541800	0.004715
C13	C	0.003200	0.356800	0.618900	-0.206936
C14	C	0.026700	0.429700	0.673400	0.004715
C15	C	0.106100	0.489600	0.650600	-0.206936
C16	C	0.160900	0.477100	0.574100	0.004715
C17	C	0.915800	0.293600	0.643500	0.733303
C18	C	0.129600	0.568600	0.710800	0.733303
C19	C	0.697200	0.107900	0.566000	0.733303
C20	C	0.636600	0.095300	0.482600	-0.206936
C21	C	0.557400	0.155500	0.458200	0.004715
C22	C	0.503200	0.143200	0.381100	-0.206936
C23	C	0.526700	0.070300	0.326600	0.004715
C24	C	0.606100	0.010400	0.349400	-0.206936
C25	C	0.660900	0.022900	0.425900	0.004715
C26	C	0.415800	0.206400	0.356500	0.733303
C27	C	0.629600	0.931400	0.289200	0.733303
C28	C	0.802800	0.892100	0.066000	0.733303
C29	C	0.863400	0.904700	0.982600	-0.206936
C30	C	0.942600	0.844500	0.958200	0.004715
C31	C	0.996800	0.856800	0.881100	-0.206936
C32	C	0.973300	0.929700	0.826600	0.004715
C33	C	0.893900	0.989600	0.849400	-0.206936
C34	C	0.839100	0.977100	0.925900	0.004715
C35	C	0.084200	0.793600	0.856500	0.733303
C36	C	0.870400	0.068600	0.789200	0.733303
Cl1	Cl	0.387350	0.795910	0.695970	-0.565996
Cl2	Cl	0.112650	0.204090	0.195970	-0.565996
Cl3	Cl	0.612650	0.295910	0.804030	-0.565996
Cl4	Cl	0.887350	0.704090	0.304030	-0.565996
O1	O	0.336300	0.667800	0.881190	-0.656382
O2	O	0.225100	0.558580	0.921300	-0.692915
O3	O	0.603800	0.771570	0.093200	-0.692915
O4	O	0.635400	0.690000	0.211400	-0.656382
O5	O	0.429500	0.416900	0.272920	-0.692915
O6	O	0.291900	0.384800	0.192000	-0.656382
O7	O	0.163700	0.332200	0.381190	-0.656382
O8	O	0.274900	0.441420	0.421300	-0.692915
O9	O	0.896200	0.228430	0.593200	-0.692915
O10	O	0.864600	0.310000	0.711400	-0.656382
O11	O	0.070500	0.583100	0.772920	-0.692915
O12	O	0.208100	0.615200	0.692000	-0.656382
O13	O	0.663700	0.167800	0.618810	-0.656382
O14	O	0.774900	0.058580	0.578700	-0.692915
O15	O	0.396200	0.271570	0.406800	-0.692915
O16	O	0.364600	0.190000	0.288600	-0.656382
O17	O	0.570500	0.916900	0.227080	-0.692915
O18	O	0.708100	0.884800	0.308000	-0.656382
O19	O	0.836300	0.832200	0.118810	-0.656382
O20	O	0.725100	0.941420	0.078700	-0.692915
O21	O	0.103800	0.728430	0.906800	-0.692915
O22	O	0.135400	0.810000	0.788600	-0.656382
O23	O	0.929500	0.083100	0.727080	-0.692915
O24	O	0.791900	0.115200	0.808000	-0.656382
