data_GAWBEM_clean_PM
_symmetry_space_group_name_H-M	'P1'
_cell_length_a	9.618900
_cell_length_b	10.639000
_cell_length_c	10.986000
_cell_angle_alpha	79.523002
_cell_angle_beta	64.994997
_cell_angle_gamma	70.574001
_symmetry_Int_Tables_number 1

loop_
_symmetry_equiv_pos_as_xyz
'x,y,z'

loop_
_atom_site_label
_atom_site_type_symbol
_atom_site_fract_x
_atom_site_fract_y
_atom_site_fract_z
_atom_site_charge
Cu1	Cu	0.651740	0.157080	0.545790	0.716820
Cu2	Cu	0.348260	0.842920	0.454210	0.716820
Cu3	Cu	0.000000	0.500000	0.500000	0.716820
Mo1	Mo	0.353290	0.208410	0.406150	1.242401
Mo2	Mo	0.646710	0.791590	0.593850	1.242401
H1	H	0.561100	0.209800	0.833800	0.065961
H2	H	0.363700	0.203200	0.041000	0.114094
H3	H	0.214100	0.113500	0.228300	0.114094
H4	H	0.003400	0.121700	0.428500	0.065961
H5	H	0.708300	0.201100	0.251900	0.065961
H6	H	0.910400	0.192500	0.046900	0.114094
H7	H	0.139300	0.080800	0.873900	0.114094
H8	H	0.349100	0.079300	0.673600	0.065961
H9	H	0.235100	0.479800	0.825000	0.114094
H10	H	0.229700	0.481000	0.619100	0.065961
H11	H	0.767000	0.521500	0.988200	0.114094
H12	H	0.772000	0.529300	0.778600	0.065961
H13	H	0.438900	0.790200	0.166200	0.065961
H14	H	0.636300	0.796800	0.959000	0.114094
H15	H	0.785900	0.886500	0.771700	0.114094
H16	H	0.996600	0.878300	0.571500	0.065961
H17	H	0.291700	0.798900	0.748100	0.065961
H18	H	0.089600	0.807500	0.953100	0.114094
H19	H	0.860700	0.919200	0.126100	0.114094
H20	H	0.650900	0.920700	0.326400	0.065961
H21	H	0.764900	0.520200	0.175000	0.114094
H22	H	0.770300	0.519000	0.380900	0.065961
H23	H	0.233000	0.478500	0.011800	0.114094
H24	H	0.228000	0.470700	0.221400	0.065961
C1	C	0.474500	0.183300	0.842100	0.144764
C2	C	0.355500	0.181200	0.966600	-0.225164
C3	C	0.223900	0.146600	0.981300	0.065316
C4	C	0.088300	0.151800	0.112600	0.065316
C5	C	0.111800	0.131300	0.230300	-0.225164
C6	C	0.984200	0.137000	0.350100	0.144764
C7	C	0.812000	0.183000	0.247000	0.144764
C8	C	0.932400	0.178200	0.123800	-0.225164
C9	C	0.224500	0.107700	0.868300	-0.225164
C10	C	0.349900	0.108700	0.748000	0.144764
C11	C	0.139000	0.489000	0.818300	-0.225164
C12	C	0.134600	0.491000	0.694900	0.144764
C13	C	0.000400	0.500500	0.932600	0.065316
C14	C	0.863300	0.514500	0.914100	-0.225164
C15	C	0.867000	0.518200	0.788200	0.144764
C16	C	0.525500	0.816700	0.157900	0.144764
C17	C	0.644500	0.818800	0.033400	-0.225164
C18	C	0.776100	0.853400	0.018700	0.065316
C19	C	0.911700	0.848200	0.887400	0.065316
C20	C	0.888200	0.868700	0.769700	-0.225164
C21	C	0.015800	0.863000	0.649900	0.144764
C22	C	0.188000	0.817000	0.753000	0.144764
C23	C	0.067600	0.821800	0.876200	-0.225164
C24	C	0.775500	0.892300	0.131700	-0.225164
C25	C	0.650100	0.891300	0.252000	0.144764
C26	C	0.861000	0.511000	0.181700	-0.225164
C27	C	0.865400	0.509000	0.305100	0.144764
C28	C	0.999600	0.499500	0.067400	0.065316
C29	C	0.136700	0.485500	0.085900	-0.225164
C30	C	0.133000	0.481800	0.211800	0.144764
N1	N	0.473100	0.149300	0.731900	-0.345513
N2	N	0.834600	0.163000	0.361900	-0.345513
N3	N	0.000700	0.506500	0.679000	-0.345513
N4	N	0.526900	0.850700	0.268100	-0.345513
N5	N	0.165400	0.837000	0.638100	-0.345513
N6	N	0.999300	0.493500	0.321000	-0.345513
O1	O	0.497900	0.208500	0.464800	-0.691655
O2	O	0.293400	0.065800	0.465800	-0.691655
O3	O	0.188600	0.349200	0.460200	-0.691655
O4	O	0.502100	0.791500	0.535200	-0.691655
O5	O	0.706600	0.934200	0.534200	-0.691655
O6	O	0.811400	0.650800	0.539800	-0.691655
