data_GAWMAU_clean_PM
_symmetry_space_group_name_H-M	'P1'
_cell_length_a	12.086400
_cell_length_b	12.966200
_cell_length_c	21.578000
_cell_angle_alpha	90.000000
_cell_angle_beta	90.000000
_cell_angle_gamma	115.309000
_symmetry_Int_Tables_number 1

loop_
_symmetry_equiv_pos_as_xyz
'x,y,z'

loop_
_atom_site_label
_atom_site_type_symbol
_atom_site_fract_x
_atom_site_fract_y
_atom_site_fract_z
_atom_site_charge
Cu1	Cu	0.017250	0.109850	0.093810	0.685334
Cu2	Cu	0.271700	0.694980	0.289000	0.685334
Cu3	Cu	0.153280	0.579700	0.995270	0.832024
Cu4	Cu	0.482750	0.390150	0.593810	0.685334
Cu5	Cu	0.228300	0.805020	0.789000	0.685334
Cu6	Cu	0.346720	0.920300	0.495270	0.832024
Cu7	Cu	0.982750	0.890150	0.906190	0.685334
Cu8	Cu	0.728300	0.305020	0.711000	0.685334
Cu9	Cu	0.846720	0.420300	0.004730	0.832024
Cu10	Cu	0.517250	0.609850	0.406190	0.685334
Cu11	Cu	0.771700	0.194980	0.211000	0.685334
Cu12	Cu	0.653280	0.079700	0.504730	0.832024
H1	H	0.633000	0.944400	0.143400	0.141919
H2	H	0.610500	0.947300	0.072200	0.141919
H3	H	0.613200	0.763200	0.189000	0.141919
H4	H	0.524400	0.651600	0.155100	0.141919
H5	H	0.623600	0.949000	0.922400	0.141919
H6	H	0.651400	0.941600	0.852100	0.141919
H7	H	0.498800	0.654600	0.836800	0.141919
H8	H	0.581300	0.767900	0.802400	0.141919
H9	H	0.215700	0.334200	0.945600	0.141919
H10	H	0.338700	0.421400	0.916600	0.141919
H11	H	0.297600	0.451700	0.087200	0.141919
H12	H	0.261000	0.338700	0.049400	0.141919
H13	H	0.274600	0.891400	0.013400	0.083325
H14	H	0.348800	0.824100	0.036200	0.083325
H15	H	0.203200	0.802800	0.112000	0.083325
H16	H	0.097800	0.760800	0.062200	0.083325
H17	H	0.292700	0.754200	0.942300	0.308815
H18	H	0.173200	0.756800	0.945600	0.308815
H19	H	0.095100	0.601700	0.101800	0.308815
H20	H	0.228200	0.644100	0.100500	0.308815
H21	H	0.867000	0.555600	0.643400	0.141919
H22	H	0.889500	0.552700	0.572200	0.141919
H23	H	0.886800	0.736800	0.689000	0.141919
H24	H	0.975600	0.848400	0.655100	0.141919
H25	H	0.876400	0.551000	0.422400	0.141919
H26	H	0.848600	0.558400	0.352100	0.141919
H27	H	0.001200	0.845400	0.336800	0.141919
H28	H	0.918700	0.732100	0.302400	0.141919
H29	H	0.284300	0.165800	0.445600	0.141919
H30	H	0.161300	0.078600	0.416600	0.141919
H31	H	0.202400	0.048300	0.587200	0.141919
H32	H	0.239000	0.161300	0.549400	0.141919
H33	H	0.225400	0.608600	0.513400	0.083325
H34	H	0.151200	0.675900	0.536200	0.083325
H35	H	0.296800	0.697200	0.612000	0.083325
H36	H	0.402200	0.739200	0.562200	0.083325
H37	H	0.207300	0.745800	0.442300	0.308815
H38	H	0.326800	0.743200	0.445600	0.308815
H39	H	0.404900	0.898300	0.601800	0.308815
H40	H	0.271800	0.855900	0.600500	0.308815
H41	H	0.367000	0.055600	0.856600	0.141919
H42	H	0.389500	0.052700	0.927800	0.141919
H43	H	0.386800	0.236800	0.811000	0.141919
H44	H	0.475600	0.348400	0.844900	0.141919
H45	H	0.376400	0.051000	0.077600	0.141919
H46	H	0.348600	0.058400	0.147900	0.141919
H47	H	0.501200	0.345400	0.163200	0.141919
H48	H	0.418700	0.232100	0.197600	0.141919
H49	H	0.784300	0.665800	0.054400	0.141919
H50	H	0.661300	0.578600	0.083400	0.141919
H51	H	0.702400	0.548300	0.912800	0.141919
H52	H	0.739000	0.661300	0.950600	0.141919
H53	H	0.725400	0.108600	0.986600	0.083325
H54	H	0.651200	0.175900	0.963800	0.083325
H55	H	0.796800	0.197200	0.888000	0.083325
H56	H	0.902200	0.239200	0.937800	0.083325
H57	H	0.707300	0.245800	0.057700	0.308815
H58	H	0.826800	0.243200	0.054400	0.308815
H59	H	0.904900	0.398300	0.898200	0.308815
H60	H	0.771800	0.355900	0.899500	0.308815
H61	H	0.133000	0.444400	0.356600	0.141919
H62	H	0.110500	0.447300	0.427800	0.141919
H63	H	0.113200	0.263200	0.311000	0.141919
H64	H	0.024400	0.151600	0.344900	0.141919
H65	H	0.123600	0.449000	0.577600	0.141919
H66	H	0.151400	0.441600	0.647900	0.141919
H67	H	0.998800	0.154600	0.663200	0.141919
H68	H	0.081300	0.267900	0.697600	0.141919
H69	H	0.715700	0.834200	0.554400	0.141919
H70	H	0.838700	0.921400	0.583400	0.141919
H71	H	0.797600	0.951700	0.412800	0.141919
H72	H	0.761000	0.838700	0.450600	0.141919
H73	H	0.774600	0.391400	0.486600	0.083325
H74	H	0.848800	0.324100	0.463800	0.083325
H75	H	0.703200	0.302800	0.388000	0.083325
H76	H	0.597800	0.260800	0.437800	0.083325
H77	H	0.792700	0.254200	0.557700	0.308815
H78	H	0.673200	0.256800	0.554400	0.308815
H79	H	0.595100	0.101700	0.398200	0.308815
H80	H	0.728200	0.144100	0.399500	0.308815
C1	C	0.525400	0.736200	0.049400	0.576312
C2	C	0.522200	0.735800	0.946000	0.576312
C3	C	0.397100	0.580100	0.997900	0.576312
C4	C	0.643300	0.914600	0.103600	-0.219759
C5	C	0.778000	0.954800	0.091900	0.686902
C6	C	0.541900	0.730900	0.162300	-0.219759
C7	C	0.433400	0.736500	0.195500	0.686902
C8	C	0.650700	0.908700	0.892500	-0.219759
C9	C	0.779300	0.928000	0.908600	0.686902
C10	C	0.517100	0.734900	0.833100	-0.219759
C11	C	0.403800	0.745000	0.810100	0.686902
C12	C	0.264700	0.414600	0.937400	-0.219397
C13	C	0.193600	0.455300	0.893000	0.680007
C14	C	0.250600	0.408700	0.051900	-0.219397
C15	C	0.115500	0.378500	0.063300	0.680007
C16	C	0.268900	0.816200	0.022900	0.070064
C17	C	0.175700	0.761300	0.073500	0.070064
C18	C	0.974600	0.763800	0.549400	0.576312
C19	C	0.977800	0.764200	0.446000	0.576312
C20	C	0.102900	0.919900	0.497900	0.576312
C21	C	0.856700	0.585400	0.603600	-0.219759
C22	C	0.722000	0.545200	0.591900	0.686902
C23	C	0.958100	0.769100	0.662300	-0.219759
C24	C	0.066600	0.763500	0.695500	0.686902
C25	C	0.849300	0.591300	0.392500	-0.219759
C26	C	0.720700	0.572000	0.408600	0.686902
C27	C	0.982900	0.765100	0.333100	-0.219759
C28	C	0.096200	0.755000	0.310100	0.686902
C29	C	0.235300	0.085400	0.437400	-0.219397
C30	C	0.306400	0.044700	0.393000	0.680007
C31	C	0.249400	0.091300	0.551900	-0.219397
C32	C	0.384500	0.121500	0.563300	0.680007
C33	C	0.231100	0.683800	0.522900	0.070064
C34	C	0.324300	0.738700	0.573500	0.070064
C35	C	0.474600	0.263800	0.950600	0.576312
C36	C	0.477800	0.264200	0.054000	0.576312
C37	C	0.602900	0.419900	0.002100	0.576312
C38	C	0.356700	0.085400	0.896400	-0.219759
C39	C	0.222000	0.045200	0.908100	0.686902
C40	C	0.458100	0.269100	0.837700	-0.219759
C41	C	0.566600	0.263500	0.804500	0.686902
C42	C	0.349300	0.091300	0.107500	-0.219759
C43	C	0.220700	0.072000	0.091400	0.686902
C44	C	0.482900	0.265100	0.166900	-0.219759
C45	C	0.596200	0.255000	0.189900	0.686902
C46	C	0.735300	0.585400	0.062600	-0.219397
C47	C	0.806400	0.544700	0.107000	0.680007
C48	C	0.749400	0.591300	0.948100	-0.219397
C49	C	0.884500	0.621500	0.936700	0.680007
C50	C	0.731100	0.183800	0.977100	0.070064
C51	C	0.824300	0.238700	0.926500	0.070064
C52	C	0.025400	0.236200	0.450600	0.576312
C53	C	0.022200	0.235800	0.554000	0.576312
C54	C	0.897100	0.080100	0.502100	0.576312
C55	C	0.143300	0.414600	0.396400	-0.219759
C56	C	0.278000	0.454800	0.408100	0.686902
C57	C	0.041900	0.230900	0.337700	-0.219759
C58	C	0.933400	0.236500	0.304500	0.686902
C59	C	0.150700	0.408700	0.607500	-0.219759
C60	C	0.279300	0.428000	0.591400	0.686902
C61	C	0.017100	0.234900	0.666900	-0.219759
C62	C	0.903800	0.245000	0.689900	0.686902
C63	C	0.764700	0.914600	0.562600	-0.219397
C64	C	0.693600	0.955300	0.607000	0.680007
C65	C	0.750600	0.908700	0.448100	-0.219397
C66	C	0.615500	0.878500	0.436700	0.680007
C67	C	0.768900	0.316200	0.477100	0.070064
C68	C	0.675700	0.261300	0.426500	0.070064
N1	N	0.568000	0.794800	0.997600	-0.607210
N2	N	0.436100	0.626900	0.942800	-0.607210
N3	N	0.438200	0.627200	0.053500	-0.607210
N4	N	0.570500	0.790600	0.103800	-0.021577
N5	N	0.562600	0.789300	0.891600	-0.021577
N6	N	0.299300	0.474100	0.996500	-0.021577
N7	N	0.228300	0.741500	0.967100	-0.640704
N8	N	0.163200	0.644100	0.080100	-0.640704
N9	N	0.932000	0.705200	0.497600	-0.607210
N10	N	0.063900	0.873100	0.442800	-0.607210
N11	N	0.061800	0.872800	0.553500	-0.607210
N12	N	0.929500	0.709400	0.603800	-0.021577
N13	N	0.937400	0.710700	0.391600	-0.021577
N14	N	0.200700	0.025900	0.496500	-0.021577
N15	N	0.271700	0.758500	0.467100	-0.640704
N16	N	0.336800	0.855900	0.580100	-0.640704
N17	N	0.432000	0.205200	0.002400	-0.607210
N18	N	0.563900	0.373100	0.057200	-0.607210
N19	N	0.561800	0.372800	0.946500	-0.607210
N20	N	0.429500	0.209400	0.896200	-0.021577
N21	N	0.437400	0.210700	0.108400	-0.021577
N22	N	0.700700	0.525900	0.003500	-0.021577
N23	N	0.771700	0.258500	0.032900	-0.640704
N24	N	0.836800	0.355900	0.919900	-0.640704
N25	N	0.068000	0.294800	0.502400	-0.607210
N26	N	0.936100	0.126900	0.557200	-0.607210
N27	N	0.938200	0.127200	0.446500	-0.607210
N28	N	0.070500	0.290600	0.396200	-0.021577
N29	N	0.062600	0.289300	0.608400	-0.021577
N30	N	0.799300	0.974100	0.503500	-0.021577
N31	N	0.728300	0.241500	0.532900	-0.640704
N32	N	0.663200	0.144100	0.419900	-0.640704
O1	O	0.839900	0.063300	0.094400	-0.589682
O2	O	0.822500	0.886600	0.081400	-0.578583
O3	O	0.407800	0.683300	0.248060	-0.589682
O4	O	0.376900	0.786200	0.174500	-0.578583
O5	O	0.851500	0.025800	0.924300	-0.578583
O6	O	0.808500	0.846600	0.902700	-0.589682
O7	O	0.362900	0.802300	0.840300	-0.589682
O8	O	0.356200	0.695400	0.761200	-0.578583
O9	O	0.149600	0.522500	0.910990	-0.566714
O10	O	0.180300	0.418200	0.839800	-0.579439
O11	O	0.062100	0.424700	0.030400	-0.566714
O12	O	0.063500	0.307600	0.104800	-0.579439
O13	O	0.660100	0.436700	0.594400	-0.589682
O14	O	0.677500	0.613400	0.581400	-0.578583
O15	O	0.092200	0.816700	0.748060	-0.589682
O16	O	0.123100	0.713800	0.674500	-0.578583
O17	O	0.648500	0.474200	0.424300	-0.578583
O18	O	0.691500	0.653400	0.402700	-0.589682
O19	O	0.137100	0.697700	0.340300	-0.589682
O20	O	0.143800	0.804600	0.261200	-0.578583
O21	O	0.350400	0.977500	0.410990	-0.566714
O22	O	0.319700	0.081800	0.339800	-0.579439
O23	O	0.437900	0.075300	0.530400	-0.566714
O24	O	0.436500	0.192400	0.604800	-0.579439
O25	O	0.160100	0.936700	0.905600	-0.589682
O26	O	0.177500	0.113400	0.918600	-0.578583
O27	O	0.592200	0.316700	0.751940	-0.589682
O28	O	0.623100	0.213800	0.825500	-0.578583
O29	O	0.148500	0.974200	0.075700	-0.578583
O30	O	0.191500	0.153400	0.097300	-0.589682
O31	O	0.637100	0.197700	0.159700	-0.589682
O32	O	0.643800	0.304600	0.238800	-0.578583
O33	O	0.850400	0.477500	0.089010	-0.566714
O34	O	0.819700	0.581800	0.160200	-0.579439
O35	O	0.937900	0.575300	0.969600	-0.566714
O36	O	0.936500	0.692400	0.895200	-0.579439
O37	O	0.339900	0.563300	0.405600	-0.589682
O38	O	0.322500	0.386600	0.418600	-0.578583
O39	O	0.907800	0.183300	0.251940	-0.589682
O40	O	0.876900	0.286200	0.325500	-0.578583
O41	O	0.351500	0.525800	0.575700	-0.578583
O42	O	0.308500	0.346600	0.597300	-0.589682
O43	O	0.862900	0.302300	0.659700	-0.589682
O44	O	0.856200	0.195400	0.738800	-0.578583
O45	O	0.649600	0.022500	0.589010	-0.566714
O46	O	0.680300	0.918200	0.660200	-0.579439
O47	O	0.562100	0.924700	0.469600	-0.566714
O48	O	0.563500	0.807600	0.395200	-0.579439
