data_GAXQIH_clean_PM
_symmetry_space_group_name_H-M	'P1'
_cell_length_a	11.144000
_cell_length_b	15.239151
_cell_length_c	16.695000
_cell_angle_alpha	114.419084
_cell_angle_beta	90.000000
_cell_angle_gamma	111.446530
_symmetry_Int_Tables_number 1

loop_
_symmetry_equiv_pos_as_xyz
'x,y,z'

loop_
_atom_site_label
_atom_site_type_symbol
_atom_site_fract_x
_atom_site_fract_y
_atom_site_fract_z
_atom_site_charge
Ni1	Ni	0.500000	0.500000	0.000000	0.625365
Ni2	Ni	0.000000	0.500000	0.500000	0.625365
Ni3	Ni	0.000000	0.500000	0.000000	0.812400
Ni4	Ni	0.500000	0.500000	0.500000	0.812400
H1	H	0.876100	0.670200	0.370000	0.118079
H2	H	0.472100	0.429200	0.179900	0.117168
H3	H	0.758500	0.695600	0.105300	0.085549
H4	H	0.386200	0.672000	0.117600	0.077600
H5	H	0.415100	0.842000	0.157800	0.123967
H6	H	0.668800	0.853800	0.989100	0.123967
H7	H	0.630300	0.683200	0.952900	0.077600
H8	H	0.816800	0.132600	0.979800	0.123967
H9	H	0.939200	0.267600	0.946900	0.081223
H10	H	0.811500	0.459800	0.124000	0.081223
H11	H	0.685000	0.330600	0.161000	0.123967
H12	H	0.515700	0.171400	0.175700	0.265503
H13	H	0.889600	0.754400	0.240700	0.287470
H14	H	0.205900	0.329800	0.130000	0.118079
H15	H	0.042900	0.570800	0.320100	0.117168
H16	H	0.062900	0.304400	0.394700	0.085549
H17	H	0.714200	0.328000	0.382400	0.077600
H18	H	0.573100	0.158000	0.342200	0.123967
H19	H	0.815000	0.146200	0.510900	0.123967
H20	H	0.947100	0.316800	0.547100	0.077600
H21	H	0.684200	0.867400	0.520200	0.123967
H22	H	0.671600	0.732400	0.553100	0.081223
H23	H	0.351700	0.540200	0.376000	0.081223
H24	H	0.354400	0.669400	0.339000	0.123967
H25	H	0.344300	0.828600	0.324300	0.265503
H26	H	0.135200	0.245600	0.259300	0.287470
H27	H	0.123900	0.329800	0.630000	0.118079
H28	H	0.527900	0.570800	0.820100	0.117168
H29	H	0.241500	0.304400	0.894700	0.085549
H30	H	0.613800	0.328000	0.882400	0.077600
H31	H	0.584900	0.158000	0.842200	0.123967
H32	H	0.331200	0.146200	0.010900	0.123967
H33	H	0.369700	0.316800	0.047100	0.077600
H34	H	0.183200	0.867400	0.020200	0.123967
H35	H	0.060800	0.732400	0.053100	0.081223
H36	H	0.188500	0.540200	0.876000	0.081223
H37	H	0.315000	0.669400	0.839000	0.123967
H38	H	0.484300	0.828600	0.824300	0.265503
H39	H	0.110400	0.245600	0.759300	0.287470
H40	H	0.794100	0.670200	0.870000	0.118079
H41	H	0.957100	0.429200	0.679900	0.117168
H42	H	0.937100	0.695600	0.605300	0.085549
H43	H	0.285800	0.672000	0.617600	0.077600
H44	H	0.426900	0.842000	0.657800	0.123967
H45	H	0.185000	0.853800	0.489100	0.123967
H46	H	0.052900	0.683200	0.452900	0.077600
H47	H	0.315800	0.132600	0.479800	0.123967
H48	H	0.328400	0.267600	0.446900	0.081223
H49	H	0.648300	0.459800	0.624000	0.081223
H50	H	0.645600	0.330600	0.661000	0.123967
H51	H	0.655700	0.171400	0.675700	0.265503
H52	H	0.864800	0.754400	0.740700	0.287470
C1	C	0.763000	0.529400	0.428300	0.639147
C2	C	0.712100	0.541000	0.350000	-0.070172
C3	C	0.590200	0.467400	0.292300	-0.056737
C4	C	0.494900	0.373200	0.303000	0.628119
C5	C	0.795800	0.622600	0.332800	-0.140088
C6	C	0.754900	0.630800	0.257300	0.102430
C7	C	0.636200	0.557200	0.198700	0.151349
C8	C	0.552300	0.476400	0.217200	-0.165533
C9	C	0.738100	0.663600	0.143400	0.225695
C10	C	0.443700	0.708600	0.090900	0.146200
C11	C	0.460400	0.811600	0.115700	-0.165802
C12	C	0.545400	0.869200	0.077100	0.020613
C13	C	0.609800	0.818600	0.016100	-0.165802
C14	C	0.586300	0.715200	0.995100	0.146200
C15	C	0.570100	0.979200	0.098400	0.359012
C16	C	0.656300	0.127000	0.095100	0.280683
C17	C	0.737800	0.216800	0.075900	0.032006
C18	C	0.814600	0.198600	0.010100	-0.162732
C19	C	0.887500	0.280400	0.990500	0.151657
C20	C	0.812300	0.393200	0.094500	0.151657
C21	C	0.736600	0.316200	0.117600	-0.162732
C22	C	0.233600	0.470600	0.071700	0.639147
C23	C	0.171100	0.459000	0.150000	-0.070172
C24	C	0.122800	0.532600	0.207700	-0.056737
C25	C	0.121700	0.626800	0.197000	0.628119
C26	C	0.173200	0.377400	0.167200	-0.140088
C27	C	0.124100	0.369200	0.242700	0.102430
C28	C	0.079000	0.442800	0.301300	0.151349
C29	C	0.075900	0.523600	0.282800	-0.165533
C30	C	0.074500	0.336400	0.356600	0.225695
C31	C	0.735100	0.291400	0.409100	0.146200
C32	C	0.648800	0.188400	0.384300	-0.165802
C33	C	0.676200	0.130800	0.422900	0.020613
C34	C	0.791200	0.181400	0.483900	-0.165802
C35	C	0.871100	0.284800	0.504900	0.146200
C36	C	0.590900	0.020800	0.401600	0.359012
C37	C	0.529300	0.873000	0.404900	0.280683
C38	C	0.521000	0.783200	0.424100	0.032006
C39	C	0.616000	0.801400	0.489900	-0.162732
C40	C	0.607100	0.719600	0.509500	0.151657
C41	C	0.419100	0.606800	0.405500	0.151657
C42	C	0.420400	0.683800	0.382400	-0.162732
C43	C	0.237000	0.470600	0.571700	0.639147
C44	C	0.287900	0.459000	0.650000	-0.070172
C45	C	0.409800	0.532600	0.707700	-0.056737
C46	C	0.505100	0.626800	0.697000	0.628119
C47	C	0.204200	0.377400	0.667200	-0.140088
C48	C	0.245100	0.369200	0.742700	0.102430
C49	C	0.363800	0.442800	0.801300	0.151349
C50	C	0.447700	0.523600	0.782800	-0.165533
C51	C	0.261900	0.336400	0.856600	0.225695
C52	C	0.556300	0.291400	0.909100	0.146200
C53	C	0.539600	0.188400	0.884300	-0.165802
C54	C	0.454600	0.130800	0.922900	0.020613
C55	C	0.390200	0.181400	0.983900	-0.165802
C56	C	0.413700	0.284800	0.004900	0.146200
C57	C	0.429900	0.020800	0.901600	0.359012
C58	C	0.343700	0.873000	0.904900	0.280683
C59	C	0.262200	0.783200	0.924100	0.032006
C60	C	0.185400	0.801400	0.989900	-0.162732
C61	C	0.112500	0.719600	0.009500	0.151657
C62	C	0.187700	0.606800	0.905500	0.151657
C63	C	0.263400	0.683800	0.882400	-0.162732
C64	C	0.766400	0.529400	0.928300	0.639147
C65	C	0.828900	0.541000	0.850000	-0.070172
C66	C	0.877200	0.467400	0.792300	-0.056737
C67	C	0.878300	0.373200	0.803000	0.628119
C68	C	0.826800	0.622600	0.832800	-0.140088
C69	C	0.875900	0.630800	0.757300	0.102430
C70	C	0.921000	0.557200	0.698700	0.151349
C71	C	0.924100	0.476400	0.717200	-0.165533
C72	C	0.925500	0.663600	0.643400	0.225695
C73	C	0.264900	0.708600	0.590900	0.146200
C74	C	0.351200	0.811600	0.615700	-0.165802
C75	C	0.323800	0.869200	0.577100	0.020613
C76	C	0.208800	0.818600	0.516100	-0.165802
C77	C	0.128900	0.715200	0.495100	0.146200
C78	C	0.409100	0.979200	0.598400	0.359012
C79	C	0.470700	0.127000	0.595100	0.280683
C80	C	0.479000	0.216800	0.575900	0.032006
C81	C	0.384000	0.198600	0.510100	-0.162732
C82	C	0.392900	0.280400	0.490500	0.151657
C83	C	0.580900	0.393200	0.594500	0.151657
C84	C	0.579600	0.316200	0.617600	-0.162732
N1	N	0.504900	0.657600	0.030900	-0.267880
N2	N	0.663500	0.033200	0.061900	-0.492948
N3	N	0.506900	0.034600	0.150000	-0.353464
N4	N	0.563000	0.131000	0.147900	-0.031508
N5	N	0.887400	0.377000	0.031200	-0.294049
N6	N	0.818100	0.699600	0.221500	-0.248735
N7	N	0.627600	0.578600	0.125400	-0.365521
N8	N	0.847300	0.342400	0.469100	-0.267880
N9	N	0.630300	0.966800	0.438100	-0.492948
N10	N	0.472300	0.965400	0.350000	-0.353464
N11	N	0.432000	0.869000	0.352100	-0.031508
N12	N	0.510400	0.623000	0.468800	-0.294049
N13	N	0.118500	0.300400	0.278500	-0.248735
N14	N	0.049000	0.421400	0.374600	-0.365521
N15	N	0.495100	0.342400	0.969100	-0.267880
N16	N	0.336500	0.966800	0.938100	-0.492948
N17	N	0.493100	0.965400	0.850000	-0.353464
N18	N	0.437000	0.869000	0.852100	-0.031508
N19	N	0.112600	0.623000	0.968800	-0.294049
N20	N	0.181900	0.300400	0.778500	-0.248735
N21	N	0.372400	0.421400	0.874600	-0.365521
N22	N	0.152700	0.657600	0.530900	-0.267880
N23	N	0.369700	0.033200	0.561900	-0.492948
N24	N	0.527700	0.034600	0.650000	-0.353464
N25	N	0.568000	0.131000	0.647900	-0.031508
N26	N	0.489600	0.377000	0.531200	-0.294049
N27	N	0.881500	0.699600	0.721500	-0.248735
N28	N	0.951000	0.578600	0.625400	-0.365521
O1	O	0.876450	0.530300	0.430400	-0.548442
O2	O	0.691880	0.520560	0.486400	-0.563370
O3	O	0.436430	0.386860	0.368700	-0.586794
O4	O	0.474200	0.283800	0.241300	-0.598625
O5	O	0.346150	0.469700	0.069600	-0.548442
O6	O	0.171320	0.479440	0.013600	-0.563370
O7	O	0.049570	0.613140	0.131300	-0.586794
O8	O	0.190400	0.716200	0.258700	-0.598625
O9	O	0.123550	0.469700	0.569600	-0.548442
O10	O	0.308120	0.479440	0.513600	-0.563370
O11	O	0.563570	0.613140	0.631300	-0.586794
O12	O	0.525800	0.716200	0.758700	-0.598625
O13	O	0.653850	0.530300	0.930400	-0.548442
O14	O	0.828680	0.520560	0.986400	-0.563370
O15	O	0.950430	0.386860	0.868700	-0.586794
O16	O	0.809600	0.283800	0.741300	-0.598625
