data_GAXWEJ_clean_PM
_symmetry_space_group_name_H-M	'P1'
_cell_length_a	12.179800
_cell_length_b	12.179800
_cell_length_c	12.663400
_cell_angle_alpha	103.939002
_cell_angle_beta	103.939002
_cell_angle_gamma	103.003000
_symmetry_Int_Tables_number 1

loop_
_symmetry_equiv_pos_as_xyz
'x,y,z'

loop_
_atom_site_label
_atom_site_type_symbol
_atom_site_fract_x
_atom_site_fract_y
_atom_site_fract_z
_atom_site_charge
Ba1	Ba	0.819720	0.180280	0.750000	1.603402
Ba2	Ba	0.180280	0.819720	0.250000	1.603402
Zn1	Zn	0.826820	0.414000	0.038270	1.096431
Zn2	Zn	0.586000	0.173180	0.461730	1.096431
Zn3	Zn	0.173180	0.586000	0.961730	1.096431
Zn4	Zn	0.414000	0.826820	0.538270	1.096431
H1	H	0.061300	0.108500	0.016300	0.102904
H2	H	0.204800	0.047200	0.120700	0.102904
H3	H	0.315300	0.358100	0.369000	0.102904
H4	H	0.168600	0.419200	0.267300	0.102904
H5	H	0.591700	0.172700	0.150900	0.102904
H6	H	0.526900	0.988100	0.823800	0.102904
H7	H	0.873300	0.479700	0.877200	0.412082
H8	H	0.759300	0.413900	0.833600	0.412082
H9	H	0.891500	0.938700	0.483700	0.102904
H10	H	0.952800	0.795200	0.379300	0.102904
H11	H	0.641900	0.684700	0.131000	0.102904
H12	H	0.580800	0.831400	0.232700	0.102904
H13	H	0.827300	0.408300	0.349100	0.102904
H14	H	0.011900	0.473100	0.676200	0.102904
H15	H	0.520300	0.126700	0.622800	0.412082
H16	H	0.586100	0.240700	0.666400	0.412082
H17	H	0.938700	0.891500	0.983700	0.102904
H18	H	0.795200	0.952800	0.879300	0.102904
H19	H	0.684700	0.641900	0.631000	0.102904
H20	H	0.831400	0.580800	0.732700	0.102904
H21	H	0.408300	0.827300	0.849100	0.102904
H22	H	0.473100	0.011900	0.176200	0.102904
H23	H	0.126700	0.520300	0.122800	0.412082
H24	H	0.240700	0.586100	0.166400	0.412082
H25	H	0.108500	0.061300	0.516300	0.102904
H26	H	0.047200	0.204800	0.620700	0.102904
H27	H	0.358100	0.315300	0.869000	0.102904
H28	H	0.419200	0.168600	0.767300	0.102904
H29	H	0.172700	0.591700	0.650900	0.102904
H30	H	0.988100	0.526900	0.323800	0.102904
H31	H	0.479700	0.873300	0.377200	0.412082
H32	H	0.413900	0.759300	0.333600	0.412082
C1	C	0.995080	0.299320	0.066600	0.704257
C2	C	0.097220	0.268980	0.132500	-0.139552
C3	C	0.110800	0.158200	0.088200	-0.063591
C4	C	0.197100	0.121700	0.150500	-0.063591
C5	C	0.272540	0.195260	0.257200	-0.139552
C6	C	0.262600	0.307000	0.299000	-0.063591
C7	C	0.175090	0.344110	0.237700	-0.063591
C8	C	0.360580	0.149620	0.326100	0.704257
C9	C	0.652770	0.199630	0.967100	0.704257
C10	C	0.572700	0.096100	0.984600	-0.139552
C11	C	0.555000	0.102800	0.090100	-0.063591
C12	C	0.516500	0.993100	0.895000	-0.063591
C13	C	0.700680	0.004920	0.433400	0.704257
C14	C	0.731020	0.902780	0.367500	-0.139552
C15	C	0.841800	0.889200	0.411800	-0.063591
C16	C	0.878300	0.802900	0.349500	-0.063591
C17	C	0.804740	0.727460	0.242800	-0.139552
C18	C	0.693000	0.737400	0.201000	-0.063591
C19	C	0.655890	0.824910	0.262300	-0.063591
C20	C	0.850380	0.639420	0.173900	0.704257
C21	C	0.800370	0.347230	0.532900	0.704257
C22	C	0.903900	0.427300	0.515400	-0.139552
C23	C	0.897200	0.445000	0.409900	-0.063591
C24	C	0.006900	0.483500	0.605000	-0.063591
C25	C	0.004920	0.700680	0.933400	0.704257
C26	C	0.902780	0.731020	0.867500	-0.139552
C27	C	0.889200	0.841800	0.911800	-0.063591
C28	C	0.802900	0.878300	0.849500	-0.063591
C29	C	0.727460	0.804740	0.742800	-0.139552
C30	C	0.737400	0.693000	0.701000	-0.063591
C31	C	0.824910	0.655890	0.762300	-0.063591
C32	C	0.639420	0.850380	0.673900	0.704257
C33	C	0.347230	0.800370	0.032900	0.704257
C34	C	0.427300	0.903900	0.015400	-0.139552
C35	C	0.445000	0.897200	0.909900	-0.063591
C36	C	0.483500	0.006900	0.105000	-0.063591
C37	C	0.299320	0.995080	0.566600	0.704257
C38	C	0.268980	0.097220	0.632500	-0.139552
C39	C	0.158200	0.110800	0.588200	-0.063591
C40	C	0.121700	0.197100	0.650500	-0.063591
C41	C	0.195260	0.272540	0.757200	-0.139552
C42	C	0.307000	0.262600	0.799000	-0.063591
C43	C	0.344110	0.175090	0.737700	-0.063591
C44	C	0.149620	0.360580	0.826100	0.704257
C45	C	0.199630	0.652770	0.467100	0.704257
C46	C	0.096100	0.572700	0.484600	-0.139552
C47	C	0.102800	0.555000	0.590100	-0.063591
C48	C	0.993100	0.516500	0.395000	-0.063591
O1	O	0.921530	0.224270	0.980100	-0.638069
O2	O	0.986820	0.404040	0.106500	-0.632162
O3	O	0.339470	0.043330	0.313200	-0.638069
O4	O	0.454250	0.227590	0.394700	-0.632162
O5	O	0.711450	0.287690	0.057000	-0.632162
O6	O	0.659350	0.194030	0.870300	-0.638069
O7	O	0.824830	0.419230	0.880400	-0.841592
O8	O	0.775730	0.078470	0.519900	-0.638069
O9	O	0.595960	0.013180	0.393500	-0.632162
O10	O	0.956670	0.660530	0.186800	-0.638069
O11	O	0.772410	0.545750	0.105300	-0.632162
O12	O	0.712310	0.288550	0.443000	-0.632162
O13	O	0.805970	0.340650	0.629700	-0.638069
O14	O	0.580770	0.175170	0.619600	-0.841592
O15	O	0.078470	0.775730	0.019900	-0.638069
O16	O	0.013180	0.595960	0.893500	-0.632162
O17	O	0.660530	0.956670	0.686800	-0.638069
O18	O	0.545750	0.772410	0.605300	-0.632162
O19	O	0.288550	0.712310	0.943000	-0.632162
O20	O	0.340650	0.805970	0.129700	-0.638069
O21	O	0.175170	0.580770	0.119600	-0.841592
O22	O	0.224270	0.921530	0.480100	-0.638069
O23	O	0.404040	0.986820	0.606500	-0.632162
O24	O	0.043330	0.339470	0.813200	-0.638069
O25	O	0.227590	0.454250	0.894700	-0.632162
O26	O	0.287690	0.711450	0.557000	-0.632162
O27	O	0.194030	0.659350	0.370300	-0.638069
O28	O	0.419230	0.824830	0.380400	-0.841592
