data_GAZLAW_clean_PM
_symmetry_space_group_name_H-M	'P1'
_cell_length_a	14.941400
_cell_length_b	15.991800
_cell_length_c	16.038100
_cell_angle_alpha	90.000000
_cell_angle_beta	90.000000
_cell_angle_gamma	90.000000
_symmetry_Int_Tables_number 1

loop_
_symmetry_equiv_pos_as_xyz
'x,y,z'

loop_
_atom_site_label
_atom_site_type_symbol
_atom_site_fract_x
_atom_site_fract_y
_atom_site_fract_z
_atom_site_charge
Na1	Na	0.562070	0.053010	0.962300	1.003051
Na2	Na	0.937930	0.946990	0.462300	1.003051
Na3	Na	0.437930	0.553010	0.537700	1.003051
Na4	Na	0.062070	0.446990	0.037700	1.003051
Co1	Co	0.144210	0.133240	0.645110	1.087843
Co2	Co	0.355790	0.866760	0.145110	1.087843
Co3	Co	0.855790	0.633240	0.854890	1.087843
Co4	Co	0.644210	0.366760	0.354890	1.087843
H1	H	0.591100	0.686700	0.960100	0.376887
H2	H	0.644800	0.906400	0.051000	0.074941
H3	H	0.579800	0.775900	0.063700	0.057599
H4	H	0.812600	0.885500	0.014700	0.136800
H5	H	0.837700	0.867700	0.921500	0.136800
H6	H	0.687000	0.870900	0.882300	0.060757
H7	H	0.463200	0.117600	0.114800	0.074941
H8	H	0.407000	0.197400	0.241400	0.133811
H9	H	0.461700	0.193500	0.324900	0.133811
H10	H	0.637600	0.186100	0.134900	0.060757
H11	H	0.390500	0.960600	0.897500	0.074941
H12	H	0.474800	0.066900	0.252000	0.057599
H13	H	0.398300	0.968100	0.737900	0.136800
H14	H	0.396100	0.056200	0.695000	0.136800
H15	H	0.384900	0.122900	0.824700	0.060757
H16	H	0.254600	0.915500	0.811500	0.133811
H17	H	0.169600	0.973100	0.809900	0.133811
H18	H	0.571800	0.318100	0.126900	0.136800
H19	H	0.476500	0.278500	0.115500	0.136800
H20	H	0.622300	0.067900	0.264100	0.376887
H21	H	0.239500	0.120900	0.935700	0.376887
H22	H	0.731200	0.772700	0.099500	0.133811
H23	H	0.708000	0.687500	0.055700	0.133811
H24	H	0.241600	0.982000	0.941000	0.057599
H25	H	0.610700	0.217800	0.006300	0.384601
H26	H	0.371900	0.038200	0.004200	0.382217
H27	H	0.721600	0.996900	0.883200	0.384601
H28	H	0.235000	0.120000	0.781000	0.374501
H29	H	0.625500	0.218600	0.278100	0.374501
H30	H	0.711000	0.724000	0.892000	0.374501
H31	H	0.519000	0.086000	0.795000	0.384601
H32	H	0.541500	0.998500	0.131300	0.382217
H33	H	0.500300	0.887700	0.986800	0.382217
H34	H	0.908900	0.313300	0.460100	0.376887
H35	H	0.855200	0.093600	0.551000	0.074941
H36	H	0.920200	0.224100	0.563700	0.057599
H37	H	0.687400	0.114500	0.514700	0.136800
H38	H	0.662300	0.132300	0.421500	0.136800
H39	H	0.813000	0.129100	0.382300	0.060757
H40	H	0.036800	0.882400	0.614800	0.074941
H41	H	0.093000	0.802600	0.741400	0.133811
H42	H	0.038300	0.806500	0.824900	0.133811
H43	H	0.862400	0.813900	0.634900	0.060757
H44	H	0.109500	0.039400	0.397500	0.074941
H45	H	0.025200	0.933100	0.752000	0.057599
H46	H	0.101700	0.031900	0.237900	0.136800
H47	H	0.103900	0.943800	0.195000	0.136800
H48	H	0.115100	0.877100	0.324700	0.060757
H49	H	0.245400	0.084500	0.311500	0.133811
H50	H	0.330400	0.026900	0.309900	0.133811
H51	H	0.928200	0.681900	0.626900	0.136800
H52	H	0.023500	0.721500	0.615500	0.136800
H53	H	0.877700	0.932100	0.764100	0.376887
H54	H	0.260500	0.879100	0.435700	0.376887
H55	H	0.768800	0.227300	0.599500	0.133811
H56	H	0.792000	0.312500	0.555700	0.133811
H57	H	0.258400	0.018000	0.441000	0.057599
H58	H	0.889300	0.782200	0.506300	0.384601
H59	H	0.128100	0.961800	0.504200	0.382217
H60	H	0.778400	0.003100	0.383200	0.384601
H61	H	0.265000	0.880000	0.281000	0.374501
H62	H	0.874500	0.781400	0.778100	0.374501
H63	H	0.789000	0.276000	0.392000	0.374501
H64	H	0.981000	0.914000	0.295000	0.384601
H65	H	0.958500	0.001500	0.631300	0.382217
H66	H	0.999700	0.112300	0.486800	0.382217
H67	H	0.408900	0.186700	0.539900	0.376887
H68	H	0.355200	0.406400	0.449000	0.074941
H69	H	0.420200	0.275900	0.436300	0.057599
H70	H	0.187400	0.385500	0.485300	0.136800
H71	H	0.162300	0.367700	0.578500	0.136800
H72	H	0.313000	0.370900	0.617700	0.060757
H73	H	0.536800	0.617600	0.385200	0.074941
H74	H	0.593000	0.697400	0.258600	0.133811
H75	H	0.538300	0.693500	0.175100	0.133811
H76	H	0.362400	0.686100	0.365100	0.060757
H77	H	0.609500	0.460600	0.602500	0.074941
H78	H	0.525200	0.566900	0.248000	0.057599
H79	H	0.601700	0.468100	0.762100	0.136800
H80	H	0.603900	0.556200	0.805000	0.136800
H81	H	0.615100	0.622900	0.675300	0.060757
H82	H	0.745400	0.415500	0.688500	0.133811
H83	H	0.830400	0.473100	0.690100	0.133811
H84	H	0.428200	0.818100	0.373100	0.136800
H85	H	0.523500	0.778500	0.384500	0.136800
H86	H	0.377700	0.567900	0.235900	0.376887
H87	H	0.760500	0.620900	0.564300	0.376887
H88	H	0.268800	0.272700	0.400500	0.133811
H89	H	0.292000	0.187500	0.444300	0.133811
H90	H	0.758400	0.482000	0.559000	0.057599
H91	H	0.389300	0.717800	0.493700	0.384601
H92	H	0.628100	0.538200	0.495800	0.382217
H93	H	0.278400	0.496900	0.616800	0.384601
H94	H	0.765000	0.620000	0.719000	0.374501
H95	H	0.374500	0.718600	0.221900	0.374501
H96	H	0.289000	0.224000	0.608000	0.374501
H97	H	0.481000	0.586000	0.705000	0.384601
H98	H	0.458500	0.498500	0.368700	0.382217
H99	H	0.499700	0.387700	0.513200	0.382217
H100	H	0.091100	0.813300	0.039900	0.376887
H101	H	0.144800	0.593600	0.949000	0.074941
H102	H	0.079800	0.724100	0.936300	0.057599
H103	H	0.312600	0.614500	0.985300	0.136800
H104	H	0.337700	0.632300	0.078500	0.136800
H105	H	0.187000	0.629100	0.117700	0.060757
H106	H	0.963200	0.382400	0.885200	0.074941
H107	H	0.907000	0.302600	0.758600	0.133811
H108	H	0.961700	0.306500	0.675100	0.133811
H109	H	0.137600	0.313900	0.865100	0.060757
H110	H	0.890500	0.539400	0.102500	0.074941
H111	H	0.974800	0.433100	0.748000	0.057599
H112	H	0.898300	0.531900	0.262100	0.136800
H113	H	0.896100	0.443800	0.305000	0.136800
H114	H	0.884900	0.377100	0.175300	0.060757
H115	H	0.754600	0.584500	0.188500	0.133811
H116	H	0.669600	0.526900	0.190100	0.133811
H117	H	0.071800	0.181900	0.873100	0.136800
H118	H	0.976500	0.221500	0.884500	0.136800
H119	H	0.122300	0.432100	0.735900	0.376887
H120	H	0.739500	0.379100	0.064300	0.376887
H121	H	0.231200	0.727300	0.900500	0.133811
H122	H	0.208000	0.812500	0.944300	0.133811
H123	H	0.741600	0.518000	0.059000	0.057599
H124	H	0.110700	0.282200	0.993700	0.384601
H125	H	0.871900	0.461800	0.995800	0.382217
H126	H	0.221600	0.503100	0.116800	0.384601
H127	H	0.735000	0.380000	0.219000	0.374501
H128	H	0.125500	0.281400	0.721900	0.374501
H129	H	0.211000	0.776000	0.108000	0.374501
H130	H	0.019000	0.414000	0.205000	0.384601
H131	H	0.041500	0.501500	0.868700	0.382217
H132	H	0.000300	0.612300	0.013200	0.382217
C1	C	0.631150	0.876440	0.999250	0.123791
C2	C	0.623470	0.783380	0.018650	0.212334
C3	C	0.793010	0.857740	0.964170	-0.332440
C4	C	0.703840	0.895100	0.936200	0.227907
C5	C	0.522580	0.114870	0.140620	0.123791
C6	C	0.466860	0.194270	0.264600	-0.325914
C7	C	0.576730	0.190320	0.112460	0.227907
C8	C	0.366900	0.017810	0.897710	0.123791
C9	C	0.511490	0.114870	0.235500	0.212334
C10	C	0.373640	0.024060	0.741800	-0.332440
C11	C	0.404750	0.064520	0.823080	0.227907
C12	C	0.234490	0.973130	0.812550	-0.325914
C13	C	0.534020	0.271350	0.142610	-0.332440
C14	C	0.713660	0.747280	0.047050	-0.325914
C15	C	0.264580	0.014080	0.893450	0.212334
C16	C	0.240180	0.976000	0.656340	0.556350
C17	C	0.875930	0.729020	0.009310	0.556350
C18	C	0.785770	0.764680	0.980190	0.289489
C19	C	0.474300	0.352140	0.265830	0.556350
C20	C	0.520680	0.271740	0.237570	0.289489
C21	C	0.272040	0.019400	0.736730	0.289489
C22	C	0.868850	0.123560	0.499250	0.123791
C23	C	0.876530	0.216620	0.518650	0.212334
C24	C	0.706990	0.142260	0.464170	-0.332440
C25	C	0.796160	0.104900	0.436200	0.227907
C26	C	0.977420	0.885130	0.640620	0.123791
C27	C	0.033140	0.805730	0.764600	-0.325914
C28	C	0.923270	0.809680	0.612460	0.227907
C29	C	0.133100	0.982190	0.397710	0.123791
C30	C	0.988510	0.885130	0.735500	0.212334
C31	C	0.126360	0.975940	0.241800	-0.332440
C32	C	0.095250	0.935480	0.323080	0.227907
C33	C	0.265510	0.026870	0.312550	-0.325914
C34	C	0.965980	0.728650	0.642610	-0.332440
C35	C	0.786340	0.252720	0.547050	-0.325914
C36	C	0.235420	0.985920	0.393450	0.212334
C37	C	0.259820	0.024000	0.156340	0.556350
C38	C	0.624070	0.270980	0.509310	0.556350
C39	C	0.714230	0.235320	0.480190	0.289489
C40	C	0.025700	0.647860	0.765830	0.556350
C41	C	0.979320	0.728260	0.737570	0.289489
C42	C	0.227960	0.980600	0.236730	0.289489
C43	C	0.368850	0.376440	0.500750	0.123791
C44	C	0.376530	0.283380	0.481350	0.212334
C45	C	0.206990	0.357740	0.535830	-0.332440
C46	C	0.296160	0.395100	0.563800	0.227907
C47	C	0.477420	0.614870	0.359380	0.123791
C48	C	0.533140	0.694270	0.235400	-0.325914
C49	C	0.423270	0.690320	0.387540	0.227907
C50	C	0.633100	0.517810	0.602290	0.123791
C51	C	0.488510	0.614870	0.264500	0.212334
C52	C	0.626360	0.524060	0.758200	-0.332440
C53	C	0.595250	0.564520	0.676920	0.227907
C54	C	0.765510	0.473130	0.687450	-0.325914
C55	C	0.465980	0.771350	0.357390	-0.332440
C56	C	0.286340	0.247280	0.452950	-0.325914
C57	C	0.735420	0.514080	0.606550	0.212334
C58	C	0.759820	0.476000	0.843660	0.556350
C59	C	0.124070	0.229020	0.490690	0.556350
C60	C	0.214230	0.264680	0.519810	0.289489
C61	C	0.525700	0.852140	0.234170	0.556350
C62	C	0.479320	0.771740	0.262430	0.289489
C63	C	0.727960	0.519400	0.763270	0.289489
C64	C	0.131150	0.623560	0.000750	0.123791
C65	C	0.123470	0.716620	0.981350	0.212334
C66	C	0.293010	0.642260	0.035830	-0.332440
C67	C	0.203840	0.604900	0.063800	0.227907
C68	C	0.022580	0.385130	0.859380	0.123791
C69	C	0.966860	0.305730	0.735400	-0.325914
C70	C	0.076730	0.309680	0.887540	0.227907
C71	C	0.866900	0.482190	0.102290	0.123791
C72	C	0.011490	0.385130	0.764500	0.212334
C73	C	0.873640	0.475940	0.258200	-0.332440
C74	C	0.904750	0.435480	0.176920	0.227907
C75	C	0.734490	0.526870	0.187450	-0.325914
C76	C	0.034020	0.228650	0.857390	-0.332440
C77	C	0.213660	0.752720	0.952950	-0.325914
C78	C	0.764580	0.485920	0.106550	0.212334
C79	C	0.740180	0.524000	0.343660	0.556350
C80	C	0.375930	0.770980	0.990690	0.556350
C81	C	0.285770	0.735320	0.019810	0.289489
C82	C	0.974300	0.147860	0.734170	0.556350
C83	C	0.020680	0.228260	0.762430	0.289489
C84	C	0.772040	0.480600	0.263270	0.289489
O1	O	0.268120	0.904110	0.644490	-0.571015
O2	O	0.395880	0.361840	0.243430	-0.571015
O3	O	0.912680	0.760070	0.070730	-0.571015
O4	O	0.594350	0.736280	0.947670	-0.589752
O5	O	0.549740	0.908500	0.965720	-0.673953
O6	O	0.396800	0.059060	0.971260	-0.673953
O7	O	0.596020	0.110700	0.277850	-0.589752
O8	O	0.224990	0.095920	0.893170	-0.589752
O9	O	0.580330	0.188120	0.022670	-0.683357
O10	O	0.500990	0.061310	0.829730	-0.683357
O11	O	0.566360	0.041470	0.112750	-0.673953
O12	O	0.708800	0.984170	0.928180	-0.683357
O13	O	0.185240	0.015220	0.609410	-0.580669
O14	O	0.763560	0.721450	0.904230	-0.602464
O15	O	0.518300	0.403390	0.311390	-0.580669
O16	O	0.236770	0.104140	0.734120	-0.602464
O17	O	0.607840	0.270070	0.276550	-0.602464
O18	O	0.908990	0.669220	0.966570	-0.580669
O19	O	0.231880	0.095890	0.144490	-0.571015
O20	O	0.104120	0.638160	0.743430	-0.571015
O21	O	0.587320	0.239930	0.570730	-0.571015
O22	O	0.905650	0.263720	0.447670	-0.589752
O23	O	0.950260	0.091500	0.465720	-0.673953
O24	O	0.103200	0.940940	0.471260	-0.673953
O25	O	0.903980	0.889300	0.777850	-0.589752
O26	O	0.275010	0.904080	0.393170	-0.589752
O27	O	0.919670	0.811880	0.522670	-0.683357
O28	O	0.999010	0.938690	0.329730	-0.683357
O29	O	0.933640	0.958530	0.612750	-0.673953
O30	O	0.791200	0.015830	0.428180	-0.683357
O31	O	0.314760	0.984780	0.109410	-0.580669
O32	O	0.736440	0.278550	0.404230	-0.602464
O33	O	0.981700	0.596610	0.811390	-0.580669
O34	O	0.263230	0.895860	0.234120	-0.602464
O35	O	0.892160	0.729930	0.776550	-0.602464
O36	O	0.591010	0.330780	0.466570	-0.580669
O37	O	0.731880	0.404110	0.855510	-0.571015
O38	O	0.604120	0.861840	0.256570	-0.571015
O39	O	0.087320	0.260070	0.429270	-0.571015
O40	O	0.405650	0.236280	0.552330	-0.589752
O41	O	0.450260	0.408500	0.534280	-0.673953
O42	O	0.603200	0.559060	0.528740	-0.673953
O43	O	0.403980	0.610700	0.222150	-0.589752
O44	O	0.775010	0.595920	0.606830	-0.589752
O45	O	0.419670	0.688120	0.477330	-0.683357
O46	O	0.499010	0.561310	0.670270	-0.683357
O47	O	0.433640	0.541470	0.387250	-0.673953
O48	O	0.291200	0.484170	0.571820	-0.683357
O49	O	0.814760	0.515220	0.890590	-0.580669
O50	O	0.236440	0.221450	0.595770	-0.602464
O51	O	0.481700	0.903390	0.188610	-0.580669
O52	O	0.763230	0.604140	0.765880	-0.602464
O53	O	0.392160	0.770070	0.223450	-0.602464
O54	O	0.091010	0.169220	0.533430	-0.580669
O55	O	0.768120	0.595890	0.355510	-0.571015
O56	O	0.895880	0.138160	0.756570	-0.571015
O57	O	0.412680	0.739930	0.929270	-0.571015
O58	O	0.094350	0.763720	0.052330	-0.589752
O59	O	0.049740	0.591500	0.034280	-0.673953
O60	O	0.896800	0.440940	0.028740	-0.673953
O61	O	0.096020	0.389300	0.722150	-0.589752
O62	O	0.724990	0.404080	0.106830	-0.589752
O63	O	0.080330	0.311880	0.977330	-0.683357
O64	O	0.000990	0.438690	0.170270	-0.683357
O65	O	0.066360	0.458530	0.887250	-0.673953
O66	O	0.208800	0.515830	0.071820	-0.683357
O67	O	0.685240	0.484780	0.390590	-0.580669
O68	O	0.263560	0.778550	0.095770	-0.602464
O69	O	0.018300	0.096610	0.688610	-0.580669
O70	O	0.736770	0.395860	0.265880	-0.602464
O71	O	0.107840	0.229930	0.723450	-0.602464
O72	O	0.408990	0.830780	0.033430	-0.580669
