data_GEDDAW_clean_PM
_symmetry_space_group_name_H-M	'P1'
_cell_length_a	18.516700
_cell_length_b	18.516700
_cell_length_c	18.516700
_cell_angle_alpha	95.450700
_cell_angle_beta	95.450700
_cell_angle_gamma	95.450701
_symmetry_Int_Tables_number 1

loop_
_symmetry_equiv_pos_as_xyz
'x,y,z'

loop_
_atom_site_label
_atom_site_type_symbol
_atom_site_fract_x
_atom_site_fract_y
_atom_site_fract_z
_atom_site_charge
Co1	Co	0.918210	0.724380	0.246530	1.110778
Co2	Co	0.778770	0.294990	0.083900	1.209320
Co3	Co	0.871630	0.961710	0.256060	1.189666
Co4	Co	0.793690	0.796170	0.322630	1.182270
Co5	Co	0.246530	0.918210	0.724380	1.110778
Co6	Co	0.083900	0.778770	0.294990	1.209320
Co7	Co	0.256060	0.871630	0.961710	1.189666
Co8	Co	0.322630	0.793690	0.796170	1.182270
Co9	Co	0.724380	0.246530	0.918210	1.110778
Co10	Co	0.294990	0.083900	0.778770	1.209320
Co11	Co	0.961710	0.256060	0.871630	1.189666
Co12	Co	0.796170	0.322630	0.793690	1.182270
Co13	Co	0.081790	0.275620	0.753470	1.110778
Co14	Co	0.221230	0.705010	0.916100	1.209320
Co15	Co	0.128370	0.038290	0.743940	1.189666
Co16	Co	0.206310	0.203830	0.677370	1.182270
Co17	Co	0.753470	0.081790	0.275620	1.110778
Co18	Co	0.916100	0.221230	0.705010	1.209320
Co19	Co	0.743940	0.128370	0.038290	1.189666
Co20	Co	0.677370	0.206310	0.203830	1.182270
Co21	Co	0.275620	0.753470	0.081790	1.110778
Co22	Co	0.705010	0.916100	0.221230	1.209320
Co23	Co	0.038290	0.743940	0.128370	1.189666
Co24	Co	0.203830	0.677370	0.206310	1.182270
H1	H	0.689000	0.608500	0.379100	0.104767
H2	H	0.610900	0.501600	0.376600	0.106752
H3	H	0.626700	0.398300	0.301800	0.104767
H4	H	0.800900	0.506000	0.228700	0.108422
H5	H	0.988800	0.836500	0.215200	0.410125
H6	H	0.661700	0.217000	0.075800	0.439759
H7	H	0.379100	0.689000	0.608500	0.104767
H8	H	0.376600	0.610900	0.501600	0.106752
H9	H	0.301800	0.626700	0.398300	0.104767
H10	H	0.228700	0.800900	0.506000	0.108422
H11	H	0.215200	0.988800	0.836500	0.410125
H12	H	0.075800	0.661700	0.217000	0.439759
H13	H	0.608500	0.379100	0.689000	0.104767
H14	H	0.501600	0.376600	0.610900	0.106752
H15	H	0.398300	0.301800	0.626700	0.104767
H16	H	0.506000	0.228700	0.800900	0.108422
H17	H	0.836500	0.215200	0.988800	0.410125
H18	H	0.217000	0.075800	0.661700	0.439759
H19	H	0.311000	0.391500	0.620900	0.104767
H20	H	0.389100	0.498400	0.623400	0.106752
H21	H	0.373300	0.601700	0.698200	0.104767
H22	H	0.199100	0.494000	0.771300	0.108422
H23	H	0.011200	0.163500	0.784800	0.410125
H24	H	0.338300	0.783000	0.924200	0.439759
H25	H	0.620900	0.311000	0.391500	0.104767
H26	H	0.623400	0.389100	0.498400	0.106752
H27	H	0.698200	0.373300	0.601700	0.104767
H28	H	0.771300	0.199100	0.494000	0.108422
H29	H	0.784800	0.011200	0.163500	0.410125
H30	H	0.924200	0.338300	0.783000	0.439759
H31	H	0.391500	0.620900	0.311000	0.104767
H32	H	0.498400	0.623400	0.389100	0.106752
H33	H	0.601700	0.698200	0.373300	0.104767
H34	H	0.494000	0.771300	0.199100	0.108422
H35	H	0.163500	0.784800	0.011200	0.410125
H36	H	0.783000	0.924200	0.338300	0.439759
C1	C	0.803800	0.635300	0.305900	0.706943
C2	C	0.725800	0.372900	0.211300	0.699284
C3	C	0.754200	0.566300	0.304500	-0.141025
C4	C	0.696000	0.566000	0.348600	-0.022108
C5	C	0.649800	0.502800	0.346700	-0.125311
C6	C	0.659200	0.441300	0.302200	-0.022108
C7	C	0.715700	0.441700	0.257900	-0.139182
C8	C	0.762600	0.505000	0.259300	0.006694
C9	C	0.305900	0.803800	0.635300	0.706943
C10	C	0.211300	0.725800	0.372900	0.699284
C11	C	0.304500	0.754200	0.566300	-0.141025
C12	C	0.348600	0.696000	0.566000	-0.022108
C13	C	0.346700	0.649800	0.502800	-0.125311
C14	C	0.302200	0.659200	0.441300	-0.022108
C15	C	0.257900	0.715700	0.441700	-0.139182
C16	C	0.259300	0.762600	0.505000	0.006694
C17	C	0.635300	0.305900	0.803800	0.706943
C18	C	0.372900	0.211300	0.725800	0.699284
C19	C	0.566300	0.304500	0.754200	-0.141025
C20	C	0.566000	0.348600	0.696000	-0.022108
C21	C	0.502800	0.346700	0.649800	-0.125311
C22	C	0.441300	0.302200	0.659200	-0.022108
C23	C	0.441700	0.257900	0.715700	-0.139182
C24	C	0.505000	0.259300	0.762600	0.006694
C25	C	0.196200	0.364700	0.694100	0.706943
C26	C	0.274200	0.627100	0.788700	0.699284
C27	C	0.245800	0.433700	0.695500	-0.141025
C28	C	0.304000	0.434000	0.651400	-0.022108
C29	C	0.350200	0.497200	0.653300	-0.125311
C30	C	0.340800	0.558700	0.697800	-0.022108
C31	C	0.284300	0.558300	0.742100	-0.139182
C32	C	0.237400	0.495000	0.740700	0.006694
C33	C	0.694100	0.196200	0.364700	0.706943
C34	C	0.788700	0.274200	0.627100	0.699284
C35	C	0.695500	0.245800	0.433700	-0.141025
C36	C	0.651400	0.304000	0.434000	-0.022108
C37	C	0.653300	0.350200	0.497200	-0.125311
C38	C	0.697800	0.340800	0.558700	-0.022108
C39	C	0.742100	0.284300	0.558300	-0.139182
C40	C	0.740700	0.237400	0.495000	0.006694
C41	C	0.364700	0.694100	0.196200	0.706943
C42	C	0.627100	0.788700	0.274200	0.699284
C43	C	0.433700	0.695500	0.245800	-0.141025
C44	C	0.434000	0.651400	0.304000	-0.022108
C45	C	0.497200	0.653300	0.350200	-0.125311
C46	C	0.558700	0.697800	0.340800	-0.022108
C47	C	0.558300	0.742100	0.284300	-0.139182
C48	C	0.495000	0.740700	0.237400	0.006694
S1	S	0.816750	0.817130	0.149670	1.692025
S2	S	0.962340	0.868040	0.368130	1.692025
S3	S	0.149670	0.816750	0.817130	1.692025
S4	S	0.368130	0.962340	0.868040	1.692025
S5	S	0.817130	0.149670	0.816750	1.692025
S6	S	0.868040	0.368130	0.962340	1.692025
S7	S	0.183250	0.182870	0.850330	1.692025
S8	S	0.037660	0.131960	0.631870	1.692025
S9	S	0.850330	0.183250	0.182870	1.692025
S10	S	0.631870	0.037660	0.131960	1.692025
S11	S	0.182870	0.850330	0.183250	1.692025
S12	S	0.131960	0.631870	0.037660	1.692025
O1	O	0.793000	0.690700	0.348300	-0.597767
O2	O	0.852900	0.635200	0.262600	-0.578120
O3	O	0.761300	0.378800	0.157300	-0.592106
O4	O	0.696800	0.314700	0.230400	-0.597026
O5	O	0.820200	0.766800	0.209300	-0.863123
O6	O	0.743300	0.842400	0.144000	-0.734028
O7	O	0.829100	0.776900	0.081100	-0.662614
O8	O	0.874100	0.879500	0.169300	-0.737126
O9	O	0.909200	0.802000	0.339500	-0.863123
O10	O	0.956700	0.923200	0.316000	-0.737126
O11	O	0.036100	0.845700	0.372000	-0.734028
O12	O	0.945400	0.895500	0.439600	-0.662614
O13	O	0.998300	0.792600	0.217800	-0.934638
O14	O	0.701100	0.209400	0.100100	-1.020422
O15	O	0.348300	0.793000	0.690700	-0.597767
O16	O	0.262600	0.852900	0.635200	-0.578120
O17	O	0.157300	0.761300	0.378800	-0.592106
O18	O	0.230400	0.696800	0.314700	-0.597026
O19	O	0.209300	0.820200	0.766800	-0.863123
O20	O	0.144000	0.743300	0.842400	-0.734028
O21	O	0.081100	0.829100	0.776900	-0.662614
O22	O	0.169300	0.874100	0.879500	-0.737126
O23	O	0.339500	0.909200	0.802000	-0.863123
O24	O	0.316000	0.956700	0.923200	-0.737126
O25	O	0.372000	0.036100	0.845700	-0.734028
O26	O	0.439600	0.945400	0.895500	-0.662614
O27	O	0.217800	0.998300	0.792600	-0.934638
O28	O	0.100100	0.701100	0.209400	-1.020422
O29	O	0.690700	0.348300	0.793000	-0.597767
O30	O	0.635200	0.262600	0.852900	-0.578120
O31	O	0.378800	0.157300	0.761300	-0.592106
O32	O	0.314700	0.230400	0.696800	-0.597026
O33	O	0.766800	0.209300	0.820200	-0.863123
O34	O	0.842400	0.144000	0.743300	-0.734028
O35	O	0.776900	0.081100	0.829100	-0.662614
O36	O	0.879500	0.169300	0.874100	-0.737126
O37	O	0.802000	0.339500	0.909200	-0.863123
O38	O	0.923200	0.316000	0.956700	-0.737126
O39	O	0.845700	0.372000	0.036100	-0.734028
O40	O	0.895500	0.439600	0.945400	-0.662614
O41	O	0.792600	0.217800	0.998300	-0.934638
O42	O	0.209400	0.100100	0.701100	-1.020422
O43	O	0.207000	0.309300	0.651700	-0.597767
O44	O	0.147100	0.364800	0.737400	-0.578120
O45	O	0.238700	0.621200	0.842700	-0.592106
O46	O	0.303200	0.685300	0.769600	-0.597026
O47	O	0.179800	0.233200	0.790700	-0.863123
O48	O	0.256700	0.157600	0.856000	-0.734028
O49	O	0.170900	0.223100	0.918900	-0.662614
O50	O	0.125900	0.120500	0.830700	-0.737126
O51	O	0.090800	0.198000	0.660500	-0.863123
O52	O	0.043300	0.076800	0.684000	-0.737126
O53	O	0.963900	0.154300	0.628000	-0.734028
O54	O	0.054600	0.104500	0.560400	-0.662614
O55	O	0.001700	0.207400	0.782200	-0.934638
O56	O	0.298900	0.790600	0.899900	-1.020422
O57	O	0.651700	0.207000	0.309300	-0.597767
O58	O	0.737400	0.147100	0.364800	-0.578120
O59	O	0.842700	0.238700	0.621200	-0.592106
O60	O	0.769600	0.303200	0.685300	-0.597026
O61	O	0.790700	0.179800	0.233200	-0.863123
O62	O	0.856000	0.256700	0.157600	-0.734028
O63	O	0.918900	0.170900	0.223100	-0.662614
O64	O	0.830700	0.125900	0.120500	-0.737126
O65	O	0.660500	0.090800	0.198000	-0.863123
O66	O	0.684000	0.043300	0.076800	-0.737126
O67	O	0.628000	0.963900	0.154300	-0.734028
O68	O	0.560400	0.054600	0.104500	-0.662614
O69	O	0.782200	0.001700	0.207400	-0.934638
O70	O	0.899900	0.298900	0.790600	-1.020422
O71	O	0.309300	0.651700	0.207000	-0.597767
O72	O	0.364800	0.737400	0.147100	-0.578120
O73	O	0.621200	0.842700	0.238700	-0.592106
O74	O	0.685300	0.769600	0.303200	-0.597026
O75	O	0.233200	0.790700	0.179800	-0.863123
O76	O	0.157600	0.856000	0.256700	-0.734028
O77	O	0.223100	0.918900	0.170900	-0.662614
O78	O	0.120500	0.830700	0.125900	-0.737126
O79	O	0.198000	0.660500	0.090800	-0.863123
O80	O	0.076800	0.684000	0.043300	-0.737126
O81	O	0.154300	0.628000	0.963900	-0.734028
O82	O	0.104500	0.560400	0.054600	-0.662614
O83	O	0.207400	0.782200	0.001700	-0.934638
O84	O	0.790600	0.899900	0.298900	-1.020422
