data_GIQXOU_clean_PM
_symmetry_space_group_name_H-M	'P1'
_cell_length_a	9.532100
_cell_length_b	9.532100
_cell_length_c	15.451000
_cell_angle_alpha	92.865099
_cell_angle_beta	92.865099
_cell_angle_gamma	99.041202
_symmetry_Int_Tables_number 1

loop_
_symmetry_equiv_pos_as_xyz
'x,y,z'

loop_
_atom_site_label
_atom_site_type_symbol
_atom_site_fract_x
_atom_site_fract_y
_atom_site_fract_z
_atom_site_charge
Er1	Er	0.010860	0.989140	0.750000	1.723248
Er2	Er	0.989140	0.010860	0.250000	1.723248
P1	P	0.353930	0.044910	0.645960	1.441230
P2	P	0.651650	0.976270	0.654290	1.441230
P3	P	0.955090	0.646070	0.854040	1.441230
P4	P	0.023730	0.348350	0.845710	1.441230
P5	P	0.646070	0.955090	0.354040	1.441230
P6	P	0.348350	0.023730	0.345710	1.441230
P7	P	0.044910	0.353930	0.145960	1.441230
P8	P	0.976270	0.651650	0.154290	1.441230
H1	H	0.420400	0.829600	0.732500	0.380950
H2	H	0.472000	0.159000	0.814300	0.135274
H3	H	0.631600	0.126200	0.816500	0.135274
H4	H	0.579000	0.225200	0.745000	0.135274
H5	H	0.170400	0.579600	0.767500	0.380950
H6	H	0.841000	0.528000	0.685700	0.135274
H7	H	0.873800	0.368400	0.683500	0.135274
H8	H	0.774800	0.421000	0.755000	0.135274
H9	H	0.579600	0.170400	0.267500	0.380950
H10	H	0.528000	0.841000	0.185700	0.135274
H11	H	0.368400	0.873800	0.183500	0.135274
H12	H	0.421000	0.774800	0.255000	0.135274
H13	H	0.829600	0.420400	0.232500	0.380950
H14	H	0.159000	0.472000	0.314300	0.135274
H15	H	0.126200	0.631600	0.316500	0.135274
H16	H	0.225200	0.579000	0.245000	0.135274
Ru1	Ru	0.545680	0.121640	0.501900	1.134340
Ru2	Ru	0.878360	0.454320	0.998100	1.134340
Ru3	Ru	0.454320	0.878360	0.498100	1.134340
Ru4	Ru	0.121640	0.545680	0.001900	1.134340
C1	C	0.504700	0.016700	0.719700	-0.229754
C2	C	0.550600	0.142200	0.778700	-0.260973
C3	C	0.983300	0.495300	0.780300	-0.229754
C4	C	0.857800	0.449400	0.721300	-0.260973
C5	C	0.495300	0.983300	0.280300	-0.229754
C6	C	0.449400	0.857800	0.221300	-0.260973
C7	C	0.016700	0.504700	0.219700	-0.229754
C8	C	0.142200	0.550600	0.278700	-0.260973
O1	O	0.408600	0.167800	0.589600	-0.731781
O2	O	0.308900	0.909700	0.586100	-0.731781
O3	O	0.233100	0.074100	0.699500	-0.887445
O4	O	0.691300	0.104300	0.598700	-0.731781
O5	O	0.594400	0.841800	0.594200	-0.731781
O6	O	0.772600	0.955000	0.714800	-0.887445
O7	O	0.450700	0.900100	0.767400	-0.472455
O8	O	0.832200	0.591400	0.910400	-0.731781
O9	O	0.090300	0.691100	0.913900	-0.731781
O10	O	0.925900	0.766900	0.800500	-0.887445
O11	O	0.895700	0.308700	0.901300	-0.731781
O12	O	0.158200	0.405600	0.905800	-0.731781
O13	O	0.045000	0.227400	0.785200	-0.887445
O14	O	0.099900	0.549300	0.732600	-0.472455
O15	O	0.591400	0.832200	0.410400	-0.731781
O16	O	0.691100	0.090300	0.413900	-0.731781
O17	O	0.766900	0.925900	0.300500	-0.887445
O18	O	0.308700	0.895700	0.401300	-0.731781
O19	O	0.405600	0.158200	0.405800	-0.731781
O20	O	0.227400	0.045000	0.285200	-0.887445
O21	O	0.549300	0.099900	0.232600	-0.472455
O22	O	0.167800	0.408600	0.089600	-0.731781
O23	O	0.909700	0.308900	0.086100	-0.731781
O24	O	0.074100	0.233100	0.199500	-0.887445
O25	O	0.104300	0.691300	0.098700	-0.731781
O26	O	0.841800	0.594400	0.094200	-0.731781
O27	O	0.955000	0.772600	0.214800	-0.887445
O28	O	0.900100	0.450700	0.267400	-0.472455
