data_GIRGUL_clean_PM
_symmetry_space_group_name_H-M	'P1'
_cell_length_a	8.267000
_cell_length_b	13.344000
_cell_length_c	14.724000
_cell_angle_alpha	90.000000
_cell_angle_beta	90.000000
_cell_angle_gamma	105.840002
_symmetry_Int_Tables_number 1

loop_
_symmetry_equiv_pos_as_xyz
'x,y,z'

loop_
_atom_site_label
_atom_site_type_symbol
_atom_site_fract_x
_atom_site_fract_y
_atom_site_fract_z
_atom_site_charge
Co1	Co	0.316600	0.369530	0.083150	0.911401
Co2	Co	0.183400	0.630470	0.583150	0.911401
Co3	Co	0.683400	0.630470	0.916850	0.911401
Co4	Co	0.816600	0.369530	0.416850	0.911401
H1	H	0.120200	0.676600	0.300800	0.105782
H2	H	0.220100	0.584600	0.056100	0.099465
H3	H	0.008500	0.724900	0.119400	0.085442
H4	H	0.181800	0.753000	0.069600	0.085442
H5	H	0.295900	0.855600	0.191000	0.105388
H6	H	0.156900	0.893300	0.139800	0.105388
H7	H	0.114600	0.833500	0.232200	0.105388
H8	H	0.590900	0.268100	0.109400	0.081870
H9	H	0.671900	0.121900	0.084200	0.128890
H10	H	0.258900	0.015000	0.935800	0.128890
H11	H	0.196800	0.168500	0.961700	0.081870
H12	H	0.379800	0.323400	0.800800	0.105782
H13	H	0.279900	0.415400	0.556100	0.099465
H14	H	0.491500	0.275100	0.619400	0.085442
H15	H	0.318200	0.247000	0.569600	0.085442
H16	H	0.204100	0.144400	0.691000	0.105388
H17	H	0.343100	0.106700	0.639800	0.105388
H18	H	0.385400	0.166500	0.732200	0.105388
H19	H	0.909100	0.731900	0.609400	0.081870
H20	H	0.828100	0.878100	0.584200	0.128890
H21	H	0.241100	0.985000	0.435800	0.128890
H22	H	0.303200	0.831500	0.461700	0.081870
H23	H	0.879800	0.323400	0.699200	0.105782
H24	H	0.779900	0.415400	0.943900	0.099465
H25	H	0.991500	0.275100	0.880600	0.085442
H26	H	0.818200	0.247000	0.930400	0.085442
H27	H	0.704100	0.144400	0.809000	0.105388
H28	H	0.843100	0.106700	0.860200	0.105388
H29	H	0.885400	0.166500	0.767800	0.105388
H30	H	0.409100	0.731900	0.890600	0.081870
H31	H	0.328100	0.878100	0.915800	0.128890
H32	H	0.741100	0.985000	0.064200	0.128890
H33	H	0.803200	0.831500	0.038300	0.081870
H34	H	0.620200	0.676600	0.199200	0.105782
H35	H	0.720100	0.584600	0.443900	0.099465
H36	H	0.508500	0.724900	0.380600	0.085442
H37	H	0.681800	0.753000	0.430400	0.085442
H38	H	0.795900	0.855600	0.309000	0.105388
H39	H	0.656900	0.893300	0.360200	0.105388
H40	H	0.614600	0.833500	0.267800	0.105388
H41	H	0.090900	0.268100	0.390600	0.081870
H42	H	0.171900	0.121900	0.415800	0.128890
H43	H	0.758900	0.015000	0.564200	0.128890
H44	H	0.696800	0.168500	0.538300	0.081870
C1	C	0.320800	0.394000	0.277400	0.601729
C2	C	0.252400	0.480900	0.244000	0.096673
C3	C	0.156700	0.631200	0.263300	-0.071977
C4	C	0.168600	0.650500	0.171200	-0.008682
C5	C	0.217300	0.576600	0.118900	0.112170
C6	C	0.168100	0.529100	0.402400	0.680004
C7	C	0.129000	0.742300	0.129000	-0.080823
C8	C	0.178100	0.839200	0.176900	-0.279430
C9	C	0.522300	0.216000	0.073800	0.179151
C10	C	0.571800	0.127900	0.059100	-0.194375
C11	C	0.476000	0.048700	0.007900	0.089070
C12	C	0.330300	0.065800	0.971500	-0.194375
C13	C	0.292600	0.158000	0.988700	0.179151
C14	C	0.196700	0.547500	0.301500	-0.147143
C15	C	0.179200	0.606000	0.777400	0.601729
C16	C	0.247600	0.519100	0.744000	0.096673
C17	C	0.343300	0.368800	0.763300	-0.071977
C18	C	0.331400	0.349500	0.671200	-0.008682
C19	C	0.282700	0.423400	0.618900	0.112170
C20	C	0.331900	0.470900	0.902400	0.680004
C21	C	0.371000	0.257700	0.629000	-0.080823
C22	C	0.321900	0.160800	0.676900	-0.279430
C23	C	0.977700	0.784000	0.573800	0.179151
C24	C	0.928200	0.872100	0.559100	-0.194375
C25	C	0.024000	0.951300	0.507900	0.089070
C26	C	0.169700	0.934200	0.471500	-0.194375
C27	C	0.207400	0.842000	0.488700	0.179151
C28	C	0.303300	0.452500	0.801500	-0.147143
C29	C	0.679200	0.606000	0.722600	0.601729
C30	C	0.747600	0.519100	0.756000	0.096673
C31	C	0.843300	0.368800	0.736700	-0.071977
C32	C	0.831400	0.349500	0.828800	-0.008682
C33	C	0.782700	0.423400	0.881100	0.112170
C34	C	0.831900	0.470900	0.597600	0.680004
C35	C	0.871000	0.257700	0.871000	-0.080823
C36	C	0.821900	0.160800	0.823100	-0.279430
C37	C	0.477700	0.784000	0.926200	0.179151
C38	C	0.428200	0.872100	0.940900	-0.194375
C39	C	0.524000	0.951300	0.992100	0.089070
C40	C	0.669700	0.934200	0.028500	-0.194375
C41	C	0.707400	0.842000	0.011300	0.179151
C42	C	0.803300	0.452500	0.698500	-0.147143
C43	C	0.820800	0.394000	0.222600	0.601729
C44	C	0.752400	0.480900	0.256000	0.096673
C45	C	0.656700	0.631200	0.236700	-0.071977
C46	C	0.668600	0.650500	0.328800	-0.008682
C47	C	0.717300	0.576600	0.381100	0.112170
C48	C	0.668100	0.529100	0.097600	0.680004
C49	C	0.629000	0.742300	0.371000	-0.080823
C50	C	0.678100	0.839200	0.323100	-0.279430
C51	C	0.022300	0.216000	0.426200	0.179151
C52	C	0.071800	0.127900	0.440900	-0.194375
C53	C	0.976000	0.048700	0.492100	0.089070
C54	C	0.830300	0.065800	0.528500	-0.194375
C55	C	0.792600	0.158000	0.511300	0.179151
C56	C	0.696700	0.547500	0.198500	-0.147143
N1	N	0.260100	0.495300	0.153460	-0.322223
N2	N	0.382200	0.231900	0.040420	-0.336686
N3	N	0.239900	0.504700	0.653460	-0.322223
N4	N	0.117800	0.768100	0.540420	-0.336686
N5	N	0.739900	0.504700	0.846540	-0.322223
N6	N	0.617800	0.768100	0.959580	-0.336686
N7	N	0.760100	0.495300	0.346540	-0.322223
N8	N	0.882200	0.231900	0.459580	-0.336686
O1	O	0.337700	0.328480	0.218190	-0.588446
O2	O	0.358500	0.392660	0.357780	-0.579953
O3	O	0.067400	0.446280	0.428380	-0.579526
O4	O	0.243100	0.602580	0.452490	-0.579526
O5	O	0.162300	0.671520	0.718190	-0.588446
O6	O	0.141500	0.607340	0.857780	-0.579953
O7	O	0.432600	0.553720	0.928380	-0.579526
O8	O	0.256900	0.397420	0.952490	-0.579526
O9	O	0.662300	0.671520	0.781810	-0.588446
O10	O	0.641500	0.607340	0.642220	-0.579953
O11	O	0.932600	0.553720	0.571620	-0.579526
O12	O	0.756900	0.397420	0.547510	-0.579526
O13	O	0.837700	0.328480	0.281810	-0.588446
O14	O	0.858500	0.392660	0.142220	-0.579953
O15	O	0.567400	0.446280	0.071620	-0.579526
O16	O	0.743100	0.602580	0.047510	-0.579526
