data_GUPBEZ_PM
_symmetry_space_group_name_H-M	'P1'
_cell_length_a	15.934400
_cell_length_b	17.991400
_cell_length_c	17.991400
_cell_angle_alpha	90.000000
_cell_angle_beta	90.000000
_cell_angle_gamma	90.000000
_symmetry_Int_Tables_number 1

loop_
_symmetry_equiv_pos_as_xyz
'x,y,z'

loop_
_atom_site_label
_atom_site_type_symbol
_atom_site_fract_x
_atom_site_fract_y
_atom_site_fract_z
_atom_site_charge
Cu1	Cu	0.500000	0.231860	0.257040	0.089822
Cu2	Cu	0.500000	0.768140	0.742960	0.089822
Cu3	Cu	0.500000	0.742960	0.231860	0.089822
Cu4	Cu	0.500000	0.257040	0.768140	0.089822
Cu5	Cu	0.000000	0.768140	0.257040	0.089822
Cu6	Cu	0.000000	0.231860	0.742960	0.089822
Cu7	Cu	0.000000	0.257040	0.231860	0.089822
Cu8	Cu	0.000000	0.742960	0.768140	0.089822
Cu9	Cu	0.416130	0.219890	0.383600	0.089822
Cu10	Cu	0.416130	0.780110	0.616400	0.089822
Cu11	Cu	0.416130	0.616400	0.219890	0.089822
Cu12	Cu	0.416130	0.383600	0.780110	0.089822
Cu13	Cu	0.083870	0.780110	0.383600	0.089822
Cu14	Cu	0.083870	0.219890	0.616400	0.089822
Cu15	Cu	0.083870	0.383600	0.219890	0.089822
Cu16	Cu	0.083870	0.616400	0.780110	0.089822
Cu17	Cu	0.583870	0.780110	0.616400	0.089822
Cu18	Cu	0.583870	0.219890	0.383600	0.089822
Cu19	Cu	0.583870	0.383600	0.780110	0.089822
Cu20	Cu	0.583870	0.616400	0.219890	0.089822
Cu21	Cu	0.916130	0.219890	0.616400	0.089822
Cu22	Cu	0.916130	0.780110	0.383600	0.089822
Cu23	Cu	0.916130	0.616400	0.780110	0.089822
Cu24	Cu	0.916130	0.383600	0.219890	0.089822
Cu25	Cu	0.500000	0.322110	0.894380	0.089822
Cu26	Cu	0.500000	0.677890	0.105620	0.089822
Cu27	Cu	0.500000	0.105620	0.322110	0.089822
Cu28	Cu	0.500000	0.894380	0.677890	0.089822
Cu29	Cu	0.000000	0.677890	0.894380	0.089822
Cu30	Cu	0.000000	0.322110	0.105620	0.089822
Cu31	Cu	0.000000	0.894380	0.322110	0.089822
Cu32	Cu	0.000000	0.105620	0.677890	0.089822
H1	H	0.424500	0.352300	0.156600	0.075941
H2	H	0.424500	0.647700	0.843400	0.075941
H3	H	0.424500	0.843400	0.352300	0.075941
H4	H	0.424500	0.156600	0.647700	0.075941
H5	H	0.075500	0.647700	0.156600	0.075941
H6	H	0.075500	0.352300	0.843400	0.075941
H7	H	0.075500	0.156600	0.352300	0.075941
H8	H	0.075500	0.843400	0.647700	0.075941
H9	H	0.575500	0.647700	0.843400	0.075941
H10	H	0.575500	0.352300	0.156600	0.075941
H11	H	0.575500	0.156600	0.647700	0.075941
H12	H	0.575500	0.843400	0.352300	0.075941
H13	H	0.924500	0.352300	0.843400	0.075941
H14	H	0.924500	0.647700	0.156600	0.075941
H15	H	0.924500	0.843400	0.647700	0.075941
H16	H	0.924500	0.156600	0.352300	0.075941
H17	H	0.374600	0.279100	0.139000	0.075941
H18	H	0.374600	0.720900	0.861000	0.075941
H19	H	0.374600	0.861000	0.279100	0.075941
H20	H	0.374600	0.139000	0.720900	0.075941
H21	H	0.125400	0.720900	0.139000	0.075941
H22	H	0.125400	0.279100	0.861000	0.075941
H23	H	0.125400	0.139000	0.279100	0.075941
H24	H	0.125400	0.861000	0.720900	0.075941
H25	H	0.625400	0.720900	0.861000	0.075941
H26	H	0.625400	0.279100	0.139000	0.075941
H27	H	0.625400	0.139000	0.720900	0.075941
H28	H	0.625400	0.861000	0.279100	0.075941
H29	H	0.874600	0.279100	0.861000	0.075941
H30	H	0.874600	0.720900	0.139000	0.075941
H31	H	0.874600	0.861000	0.720900	0.075941
H32	H	0.874600	0.139000	0.279100	0.075941
H33	H	0.450700	0.164400	0.110900	0.075941
H34	H	0.450700	0.835600	0.889100	0.075941
H35	H	0.450700	0.889100	0.164400	0.075941
H36	H	0.450700	0.110900	0.835600	0.075941
H37	H	0.049300	0.835600	0.110900	0.075941
H38	H	0.049300	0.164400	0.889100	0.075941
H39	H	0.049300	0.110900	0.164400	0.075941
H40	H	0.049300	0.889100	0.835600	0.075941
H41	H	0.549300	0.835600	0.889100	0.075941
H42	H	0.549300	0.164400	0.110900	0.075941
H43	H	0.549300	0.110900	0.835600	0.075941
H44	H	0.549300	0.889100	0.164400	0.075941
H45	H	0.950700	0.164400	0.889100	0.075941
H46	H	0.950700	0.835600	0.110900	0.075941
H47	H	0.950700	0.889100	0.835600	0.075941
H48	H	0.950700	0.110900	0.164400	0.075941
H49	H	0.549300	0.194000	0.992500	0.075941
H50	H	0.549300	0.806000	0.007500	0.075941
H51	H	0.549300	0.007500	0.194000	0.075941
H52	H	0.549300	0.992500	0.806000	0.075941
H53	H	0.950700	0.806000	0.992500	0.075941
H54	H	0.950700	0.194000	0.007500	0.075941
H55	H	0.950700	0.992500	0.194000	0.075941
H56	H	0.950700	0.007500	0.806000	0.075941
H57	H	0.450700	0.806000	0.007500	0.075941
H58	H	0.450700	0.194000	0.992500	0.075941
H59	H	0.450700	0.992500	0.806000	0.075941
H60	H	0.450700	0.007500	0.194000	0.075941
H61	H	0.049300	0.194000	0.007500	0.075941
H62	H	0.049300	0.806000	0.992500	0.075941
H63	H	0.049300	0.007500	0.806000	0.075941
H64	H	0.049300	0.992500	0.194000	0.075941
H65	H	0.374300	0.307400	0.020700	0.075941
H66	H	0.374300	0.692600	0.979300	0.075941
H67	H	0.374300	0.979300	0.307400	0.075941
H68	H	0.374300	0.020700	0.692600	0.075941
H69	H	0.125700	0.692600	0.020700	0.075941
H70	H	0.125700	0.307400	0.979300	0.075941
H71	H	0.125700	0.020700	0.307400	0.075941
H72	H	0.125700	0.979300	0.692600	0.075941
H73	H	0.625700	0.692600	0.979300	0.075941
H74	H	0.625700	0.307400	0.020700	0.075941
H75	H	0.625700	0.020700	0.692600	0.075941
H76	H	0.625700	0.979300	0.307400	0.075941
H77	H	0.874300	0.307400	0.979300	0.075941
H78	H	0.874300	0.692600	0.020700	0.075941
H79	H	0.874300	0.979300	0.692600	0.075941
H80	H	0.874300	0.020700	0.307400	0.075941
H81	H	0.423400	0.381000	0.038400	0.075941
H82	H	0.423400	0.619000	0.961600	0.075941
H83	H	0.423400	0.961600	0.381000	0.075941
H84	H	0.423400	0.038400	0.619000	0.075941
H85	H	0.076600	0.619000	0.038400	0.075941
H86	H	0.076600	0.381000	0.961600	0.075941
H87	H	0.076600	0.038400	0.381000	0.075941
H88	H	0.076600	0.961600	0.619000	0.075941
H89	H	0.576600	0.619000	0.961600	0.075941
H90	H	0.576600	0.381000	0.038400	0.075941
H91	H	0.576600	0.038400	0.619000	0.075941
H92	H	0.576600	0.961600	0.381000	0.075941
H93	H	0.923400	0.381000	0.961600	0.075941
H94	H	0.923400	0.619000	0.038400	0.075941
H95	H	0.923400	0.961600	0.619000	0.075941
H96	H	0.923400	0.038400	0.381000	0.075941
H97	H	0.324700	0.120400	0.473600	0.075941
H98	H	0.324700	0.879600	0.526400	0.075941
H99	H	0.324700	0.526400	0.120400	0.075941
H100	H	0.324700	0.473600	0.879600	0.075941
H101	H	0.175300	0.879600	0.473600	0.075941
H102	H	0.175300	0.120400	0.526400	0.075941
H103	H	0.175300	0.473600	0.120400	0.075941
H104	H	0.175300	0.526400	0.879600	0.075941
H105	H	0.675300	0.879600	0.526400	0.075941
H106	H	0.675300	0.120400	0.473600	0.075941
H107	H	0.675300	0.473600	0.879600	0.075941
H108	H	0.675300	0.526400	0.120400	0.075941
H109	H	0.824700	0.120400	0.526400	0.075941
H110	H	0.824700	0.879600	0.473600	0.075941
H111	H	0.824700	0.526400	0.879600	0.075941
H112	H	0.824700	0.473600	0.120400	0.075941
H113	H	0.247200	0.138400	0.422700	0.075941
H114	H	0.247200	0.861600	0.577300	0.075941
H115	H	0.247200	0.577300	0.138400	0.075941
H116	H	0.247200	0.422700	0.861600	0.075941
H117	H	0.252800	0.861600	0.422700	0.075941
H118	H	0.252800	0.138400	0.577300	0.075941
H119	H	0.252800	0.422700	0.138400	0.075941
H120	H	0.252800	0.577300	0.861600	0.075941
H121	H	0.752800	0.861600	0.577300	0.075941
H122	H	0.752800	0.138400	0.422700	0.075941
H123	H	0.752800	0.422700	0.861600	0.075941
H124	H	0.752800	0.577300	0.138400	0.075941
H125	H	0.747200	0.138400	0.577300	0.075941
H126	H	0.747200	0.861600	0.422700	0.075941
H127	H	0.747200	0.577300	0.861600	0.075941
H128	H	0.747200	0.422700	0.138400	0.075941
H129	H	0.364700	0.311400	0.517900	0.075941
H130	H	0.364700	0.688600	0.482100	0.075941
H131	H	0.364700	0.482100	0.311400	0.075941
H132	H	0.364700	0.517900	0.688600	0.075941
H133	H	0.135300	0.688600	0.517900	0.075941
H134	H	0.135300	0.311400	0.482100	0.075941
H135	H	0.135300	0.517900	0.311400	0.075941
H136	H	0.135300	0.482100	0.688600	0.075941
H137	H	0.635300	0.688600	0.482100	0.075941
H138	H	0.635300	0.311400	0.517900	0.075941
H139	H	0.635300	0.517900	0.688600	0.075941
H140	H	0.635300	0.482100	0.311400	0.075941
H141	H	0.864700	0.311400	0.482100	0.075941
H142	H	0.864700	0.688600	0.517900	0.075941
H143	H	0.864700	0.482100	0.688600	0.075941
H144	H	0.864700	0.517900	0.311400	0.075941
H145	H	0.376100	0.231200	0.550800	0.075941
H146	H	0.376100	0.768800	0.449200	0.075941
H147	H	0.376100	0.449200	0.231200	0.075941
H148	H	0.376100	0.550800	0.768800	0.075941
H149	H	0.123900	0.768800	0.550800	0.075941
H150	H	0.123900	0.231200	0.449200	0.075941
H151	H	0.123900	0.550800	0.231200	0.075941
H152	H	0.123900	0.449200	0.768800	0.075941
H153	H	0.623900	0.768800	0.449200	0.075941
H154	H	0.623900	0.231200	0.550800	0.075941
H155	H	0.623900	0.550800	0.768800	0.075941
H156	H	0.623900	0.449200	0.231200	0.075941
H157	H	0.876100	0.231200	0.449200	0.075941
H158	H	0.876100	0.768800	0.550800	0.075941
H159	H	0.876100	0.449200	0.768800	0.075941
H160	H	0.876100	0.550800	0.231200	0.075941
H161	H	0.228400	0.261100	0.373700	0.075941
H162	H	0.228400	0.738900	0.626300	0.075941
H163	H	0.228400	0.626300	0.261100	0.075941
H164	H	0.228400	0.373700	0.738900	0.075941
H165	H	0.271600	0.738900	0.373700	0.075941
H166	H	0.271600	0.261100	0.626300	0.075941
H167	H	0.271600	0.373700	0.261100	0.075941
H168	H	0.271600	0.626300	0.738900	0.075941
H169	H	0.771600	0.738900	0.626300	0.075941
H170	H	0.771600	0.261100	0.373700	0.075941
H171	H	0.771600	0.373700	0.738900	0.075941
H172	H	0.771600	0.626300	0.261100	0.075941
H173	H	0.728400	0.261100	0.626300	0.075941
H174	H	0.728400	0.738900	0.373700	0.075941
H175	H	0.728400	0.626300	0.738900	0.075941
H176	H	0.728400	0.373700	0.261100	0.075941
H177	H	0.256400	0.328100	0.423900	0.075941
H178	H	0.256400	0.671900	0.576100	0.075941
H179	H	0.256400	0.576100	0.328100	0.075941
H180	H	0.256400	0.423900	0.671900	0.075941
H181	H	0.243600	0.671900	0.423900	0.075941
H182	H	0.243600	0.328100	0.576100	0.075941
H183	H	0.243600	0.423900	0.328100	0.075941
H184	H	0.243600	0.576100	0.671900	0.075941
H185	H	0.743600	0.671900	0.576100	0.075941
H186	H	0.743600	0.328100	0.423900	0.075941
H187	H	0.743600	0.423900	0.671900	0.075941
H188	H	0.743600	0.576100	0.328100	0.075941
H189	H	0.756400	0.328100	0.576100	0.075941
H190	H	0.756400	0.671900	0.423900	0.075941
H191	H	0.756400	0.576100	0.671900	0.075941
H192	H	0.756400	0.423900	0.328100	0.075941
C1	C	0.424800	0.307100	0.127200	-0.052982
C2	C	0.424800	0.692900	0.872800	-0.052982
C3	C	0.424800	0.872800	0.307100	-0.052982
C4	C	0.424800	0.127200	0.692900	-0.052982
C5	C	0.075200	0.692900	0.127200	-0.052982
C6	C	0.075200	0.307100	0.872800	-0.052982
C7	C	0.075200	0.127200	0.307100	-0.052982
C8	C	0.075200	0.872800	0.692900	-0.052982
C9	C	0.575200	0.692900	0.872800	-0.052982
C10	C	0.575200	0.307100	0.127200	-0.052982
C11	C	0.575200	0.127200	0.692900	-0.052982
C12	C	0.575200	0.872800	0.307100	-0.052982
C13	C	0.924800	0.307100	0.872800	-0.052982
C14	C	0.924800	0.692900	0.127200	-0.052982
C15	C	0.924800	0.872800	0.692900	-0.052982
C16	C	0.924800	0.127200	0.307100	-0.052982
C17	C	0.500000	0.194000	0.099600	-0.052982
C18	C	0.500000	0.806000	0.900400	-0.052982
C19	C	0.500000	0.900400	0.194000	-0.052982
C20	C	0.500000	0.099600	0.806000	-0.052982
C21	C	0.000000	0.806000	0.099600	-0.052982
C22	C	0.000000	0.194000	0.900400	-0.052982
C23	C	0.000000	0.099600	0.194000	-0.052982
C24	C	0.000000	0.900400	0.806000	-0.052982
C25	C	0.500000	0.215000	0.016200	-0.052982
C26	C	0.500000	0.785000	0.983800	-0.052982
C27	C	0.500000	0.983800	0.215000	-0.052982
C28	C	0.500000	0.016200	0.785000	-0.052982
C29	C	0.000000	0.785000	0.016200	-0.052982
C30	C	0.000000	0.215000	0.983800	-0.052982
C31	C	0.000000	0.016200	0.215000	-0.052982
C32	C	0.000000	0.983800	0.785000	-0.052982
C33	C	0.424400	0.327400	0.043900	-0.052982
C34	C	0.424400	0.672600	0.956100	-0.052982
C35	C	0.424400	0.956100	0.327400	-0.052982
C36	C	0.424400	0.043900	0.672600	-0.052982
C37	C	0.075600	0.672600	0.043900	-0.052982
C38	C	0.075600	0.327400	0.956100	-0.052982
C39	C	0.075600	0.043900	0.327400	-0.052982
C40	C	0.075600	0.956100	0.672600	-0.052982
C41	C	0.575600	0.672600	0.956100	-0.052982
C42	C	0.575600	0.327400	0.043900	-0.052982
C43	C	0.575600	0.043900	0.672600	-0.052982
C44	C	0.575600	0.956100	0.327400	-0.052982
C45	C	0.924400	0.327400	0.956100	-0.052982
C46	C	0.924400	0.672600	0.043900	-0.052982
C47	C	0.924400	0.956100	0.672600	-0.052982
C48	C	0.924400	0.043900	0.327400	-0.052982
C49	C	0.278600	0.154700	0.465900	-0.052982
C50	C	0.278600	0.845300	0.534100	-0.052982
C51	C	0.278600	0.534100	0.154700	-0.052982
C52	C	0.278600	0.465900	0.845300	-0.052982
C53	C	0.221400	0.845300	0.465900	-0.052982
C54	C	0.221400	0.154700	0.534100	-0.052982
C55	C	0.221400	0.465900	0.154700	-0.052982
C56	C	0.221400	0.534100	0.845300	-0.052982
C57	C	0.721400	0.845300	0.534100	-0.052982
C58	C	0.721400	0.154700	0.465900	-0.052982
C59	C	0.721400	0.465900	0.845300	-0.052982
C60	C	0.721400	0.534100	0.154700	-0.052982
C61	C	0.778600	0.154700	0.534100	-0.052982
C62	C	0.778600	0.845300	0.465900	-0.052982
C63	C	0.778600	0.534100	0.845300	-0.052982
C64	C	0.778600	0.465900	0.154700	-0.052982
C65	C	0.336900	0.264100	0.525900	-0.052982
C66	C	0.336900	0.735900	0.474100	-0.052982
C67	C	0.336900	0.474100	0.264100	-0.052982
C68	C	0.336900	0.525900	0.735900	-0.052982
C69	C	0.163100	0.735900	0.525900	-0.052982
C70	C	0.163100	0.264100	0.474100	-0.052982
C71	C	0.163100	0.525900	0.264100	-0.052982
C72	C	0.163100	0.474100	0.735900	-0.052982
C73	C	0.663100	0.735900	0.474100	-0.052982
C74	C	0.663100	0.264100	0.525900	-0.052982
C75	C	0.663100	0.525900	0.735900	-0.052982
C76	C	0.663100	0.474100	0.264100	-0.052982
C77	C	0.836900	0.264100	0.474100	-0.052982
C78	C	0.836900	0.735900	0.525900	-0.052982
C79	C	0.836900	0.474100	0.735900	-0.052982
C80	C	0.836900	0.525900	0.264100	-0.052982
C81	C	0.241200	0.275900	0.424200	-0.052982
C82	C	0.241200	0.724100	0.575800	-0.052982
C83	C	0.241200	0.575800	0.275900	-0.052982
C84	C	0.241200	0.424200	0.724100	-0.052982
C85	C	0.258800	0.724100	0.424200	-0.052982
C86	C	0.258800	0.275900	0.575800	-0.052982
C87	C	0.258800	0.424200	0.275900	-0.052982
C88	C	0.258800	0.575800	0.724100	-0.052982
C89	C	0.758800	0.724100	0.575800	-0.052982
C90	C	0.758800	0.275900	0.424200	-0.052982
C91	C	0.758800	0.424200	0.724100	-0.052982
C92	C	0.758800	0.575800	0.275900	-0.052982
C93	C	0.741200	0.275900	0.575800	-0.052982
C94	C	0.741200	0.724100	0.424200	-0.052982
C95	C	0.741200	0.575800	0.724100	-0.052982
C96	C	0.741200	0.424200	0.275900	-0.052982
I1	I	0.500000	0.116240	0.468027	-0.259550
I2	I	0.500000	0.883760	0.531973	-0.259550
I3	I	0.500000	0.531973	0.116240	-0.259550
I4	I	0.500000	0.468027	0.883760	-0.259550
I5	I	0.000000	0.883760	0.468027	-0.259550
I6	I	0.000000	0.116240	0.531973	-0.259550
I7	I	0.000000	0.468027	0.116240	-0.259550
I8	I	0.000000	0.531973	0.883760	-0.259550
I9	I	0.353943	0.153778	0.263967	-0.259550
I10	I	0.353943	0.846222	0.736033	-0.259550
I11	I	0.353943	0.736033	0.153778	-0.259550
I12	I	0.353943	0.263967	0.846222	-0.259550
I13	I	0.146057	0.846222	0.263967	-0.259550
I14	I	0.146057	0.153778	0.736033	-0.259550
I15	I	0.146057	0.263967	0.153778	-0.259550
I16	I	0.146057	0.736033	0.846222	-0.259550
I17	I	0.646057	0.846222	0.736033	-0.259550
I18	I	0.646057	0.153778	0.263967	-0.259550
I19	I	0.646057	0.263967	0.846222	-0.259550
I20	I	0.646057	0.736033	0.153778	-0.259550
I21	I	0.853943	0.153778	0.736033	-0.259550
I22	I	0.853943	0.846222	0.263967	-0.259550
I23	I	0.853943	0.736033	0.846222	-0.259550
I24	I	0.853943	0.263967	0.153778	-0.259550
I25	I	0.500000	0.342734	0.355710	-0.259550
I26	I	0.500000	0.657266	0.644290	-0.259550
I27	I	0.500000	0.644290	0.342734	-0.259550
I28	I	0.500000	0.355710	0.657266	-0.259550
I29	I	0.000000	0.657266	0.355710	-0.259550
I30	I	0.000000	0.342734	0.644290	-0.259550
I31	I	0.000000	0.355710	0.342734	-0.259550
I32	I	0.000000	0.644290	0.657266	-0.259550
N1	N	0.312200	0.231290	0.452780	-0.126971
N2	N	0.312200	0.768710	0.547220	-0.126971
N3	N	0.312200	0.547220	0.231290	-0.126971
N4	N	0.312200	0.452780	0.768710	-0.126971
N5	N	0.187800	0.768710	0.452780	-0.126971
N6	N	0.187800	0.231290	0.547220	-0.126971
N7	N	0.187800	0.452780	0.231290	-0.126971
N8	N	0.187800	0.547220	0.768710	-0.126971
N9	N	0.687800	0.768710	0.547220	-0.126971
N10	N	0.687800	0.231290	0.452780	-0.126971
N11	N	0.687800	0.452780	0.768710	-0.126971
N12	N	0.687800	0.547220	0.231290	-0.126971
N13	N	0.812200	0.231290	0.547220	-0.126971
N14	N	0.812200	0.768710	0.452780	-0.126971
N15	N	0.812200	0.547220	0.768710	-0.126971
N16	N	0.812200	0.452780	0.231290	-0.126971
N17	N	0.500000	0.262300	0.146400	-0.126971
N18	N	0.500000	0.737700	0.853600	-0.126971
N19	N	0.500000	0.853600	0.262300	-0.126971
N20	N	0.500000	0.146400	0.737700	-0.126971
N21	N	0.000000	0.737700	0.146400	-0.126971
N22	N	0.000000	0.262300	0.853600	-0.126971
N23	N	0.000000	0.146400	0.262300	-0.126971
N24	N	0.000000	0.853600	0.737700	-0.126971
N25	N	0.500000	0.296800	0.006300	-0.126971
N26	N	0.500000	0.703200	0.993700	-0.126971
N27	N	0.500000	0.993700	0.296800	-0.126971
N28	N	0.500000	0.006300	0.703200	-0.126971
N29	N	0.000000	0.703200	0.006300	-0.126971
N30	N	0.000000	0.296800	0.993700	-0.126971
N31	N	0.000000	0.006300	0.296800	-0.126971
N32	N	0.000000	0.993700	0.703200	-0.126971
