data_GUQTOB_clean_PM
_symmetry_space_group_name_H-M	'P1'
_cell_length_a	5.003000
_cell_length_b	8.543400
_cell_length_c	12.433600
_cell_angle_alpha	92.990000
_cell_angle_beta	97.138004
_cell_angle_gamma	91.464997
_symmetry_Int_Tables_number 1

loop_
_symmetry_equiv_pos_as_xyz
'x,y,z'

loop_
_atom_site_label
_atom_site_type_symbol
_atom_site_fract_x
_atom_site_fract_y
_atom_site_fract_z
_atom_site_charge
Zn1	Zn	0.393700	0.863260	0.059550	1.283349
Zn2	Zn	0.886200	0.637240	0.860500	1.232498
Zn3	Zn	0.144700	0.031800	0.297670	1.205076
Zn4	Zn	0.606300	0.136740	0.940450	1.283349
Zn5	Zn	0.113800	0.362760	0.139500	1.232498
Zn6	Zn	0.855300	0.968200	0.702330	1.205076
P1	P	0.382200	0.823900	0.799700	1.669233
P2	P	0.958200	0.712100	0.123100	1.626119
P3	P	0.617800	0.176100	0.200300	1.669233
P4	P	0.041800	0.287900	0.876900	1.626119
C1	C	0.959500	0.915000	0.482700	0.526127
C2	C	0.040500	0.085000	0.517300	0.526127
O1	O	0.660900	0.725000	0.123300	-0.742756
O2	O	0.454900	0.914400	0.909700	-0.872686
O3	O	0.118700	0.863300	0.171300	-0.832679
O4	O	0.045200	0.694900	0.007000	-0.846166
O5	O	0.051900	0.573800	0.190100	-0.757209
O6	O	0.509900	0.663600	0.808200	-0.794223
O7	O	0.071600	0.798700	0.778500	-0.919027
O8	O	0.472400	0.919800	0.710300	-0.802134
O9	O	0.010100	0.863200	0.390100	-0.487760
O10	O	0.857000	0.836500	0.549300	-0.487760
O11	O	0.339100	0.275000	0.876700	-0.742756
O12	O	0.545100	0.085600	0.090300	-0.872686
O13	O	0.881300	0.136700	0.828700	-0.832679
O14	O	0.954800	0.305100	0.993000	-0.846166
O15	O	0.948100	0.426200	0.809900	-0.757209
O16	O	0.490100	0.336400	0.191800	-0.794223
O17	O	0.928400	0.201300	0.221500	-0.919027
O18	O	0.527600	0.080200	0.289700	-0.802134
O19	O	0.989900	0.136800	0.609900	-0.487760
O20	O	0.143000	0.163500	0.450700	-0.487760
