data_GUWDUY_clean_PM
_symmetry_space_group_name_H-M	'P1'
_cell_length_a	13.447000
_cell_length_b	13.715000
_cell_length_c	14.301000
_cell_angle_alpha	79.480002
_cell_angle_beta	63.900000
_cell_angle_gamma	65.680000
_symmetry_Int_Tables_number 1

loop_
_symmetry_equiv_pos_as_xyz
'x,y,z'

loop_
_atom_site_label
_atom_site_type_symbol
_atom_site_fract_x
_atom_site_fract_y
_atom_site_fract_z
_atom_site_charge
La1	La	0.475810	0.080460	0.341870	1.915548
La2	La	0.524190	0.919540	0.658130	1.915548
H1	H	0.125100	0.452400	0.580500	0.119225
H2	H	0.293500	0.301400	0.518100	0.061940
H3	H	0.658600	0.151000	0.088700	0.061940
H4	H	0.847800	0.134400	0.969400	0.119225
H5	H	0.592900	0.658700	0.979000	0.115374
H6	H	0.552800	0.946400	0.108400	0.061940
H7	H	0.979300	0.876100	0.128500	0.119225
H8	H	0.259800	0.978800	0.561800	0.061940
H9	H	0.533900	0.651400	0.318000	0.119225
H10	H	0.786000	0.895700	0.238400	0.061940
H11	H	0.498700	0.808400	0.384200	0.061940
H12	H	0.593800	0.504600	0.249400	0.115374
H13	H	0.578900	0.795500	0.038300	0.119225
H14	H	0.076700	0.964700	0.619100	0.119225
H15	H	0.625400	0.351600	0.177600	0.047349
H16	H	0.029000	0.413800	0.364900	0.119225
H17	H	0.638200	0.497600	0.913500	0.047349
H18	H	0.202000	0.265000	0.306700	0.061940
H19	H	0.270500	0.052100	0.282800	0.061940
H20	H	0.090300	0.038500	0.330800	0.119225
H21	H	0.874900	0.547600	0.419500	0.119225
H22	H	0.706500	0.698600	0.481900	0.061940
H23	H	0.341400	0.849000	0.911300	0.061940
H24	H	0.152200	0.865600	0.030600	0.119225
H25	H	0.407100	0.341300	0.021000	0.115374
H26	H	0.447200	0.053600	0.891600	0.061940
H27	H	0.020700	0.123900	0.871500	0.119225
H28	H	0.740200	0.021200	0.438200	0.061940
H29	H	0.466100	0.348600	0.682000	0.119225
H30	H	0.214000	0.104300	0.761600	0.061940
H31	H	0.501300	0.191600	0.615800	0.061940
H32	H	0.406200	0.495400	0.750600	0.115374
H33	H	0.421100	0.204500	0.961700	0.119225
H34	H	0.923300	0.035300	0.380900	0.119225
H35	H	0.374600	0.648400	0.822400	0.047349
H36	H	0.971000	0.586200	0.635100	0.119225
H37	H	0.361800	0.502400	0.086500	0.047349
H38	H	0.798000	0.735000	0.693300	0.061940
H39	H	0.729500	0.947900	0.717200	0.061940
H40	H	0.909700	0.961500	0.669200	0.119225
C1	C	0.138200	0.414700	0.524000	-0.220196
C2	C	0.562400	0.703200	0.168800	0.074133
C3	C	0.937400	0.004900	0.036300	0.074133
C4	C	0.055600	0.450700	0.480200	0.074133
C5	C	0.239100	0.324200	0.485700	0.185944
C6	C	0.724700	0.094000	0.097100	0.185944
C7	C	0.587900	0.602200	0.123000	0.064168
C8	C	0.837900	0.085300	0.025800	-0.220196
C9	C	0.601200	0.596500	0.021600	-0.253806
C10	C	0.547200	0.886200	0.152400	0.185944
C11	C	0.914900	0.933700	0.118100	-0.220196
C12	C	0.223800	0.993500	0.514000	0.185944
C13	C	0.537300	0.711400	0.273200	-0.220196
C14	C	0.798500	0.946900	0.184400	0.185944
C15	C	0.059300	0.003200	0.482600	0.074133
C16	C	0.517200	0.805600	0.312300	0.185944
C17	C	0.600100	0.506300	0.180400	-0.253806
C18	C	0.564900	0.795300	0.109500	-0.220196
C19	C	0.114100	0.984300	0.548800	-0.220196
C20	C	0.621300	0.414300	0.135800	0.194020
C21	C	0.082200	0.392500	0.398200	-0.220196
C22	C	0.626600	0.499600	0.983700	0.194020
C23	C	0.186100	0.303100	0.364000	0.185944
C24	C	0.230000	0.035500	0.353400	0.185944
C25	C	0.121900	0.027400	0.381400	-0.220196
C26	C	0.861800	0.585300	0.476000	-0.220196
C27	C	0.437600	0.296800	0.831200	0.074133
C28	C	0.062600	0.995100	0.963700	0.074133
C29	C	0.944400	0.549300	0.519800	0.074133
C30	C	0.760900	0.675800	0.514300	0.185944
C31	C	0.275300	0.906000	0.902900	0.185944
C32	C	0.412100	0.397800	0.877000	0.064168
C33	C	0.162100	0.914700	0.974200	-0.220196
C34	C	0.398800	0.403500	0.978400	-0.253806
C35	C	0.452800	0.113800	0.847600	0.185944
C36	C	0.085100	0.066300	0.881900	-0.220196
C37	C	0.776200	0.006500	0.486000	0.185944
C38	C	0.462700	0.288600	0.726800	-0.220196
C39	C	0.201500	0.053100	0.815600	0.185944
C40	C	0.940700	0.996800	0.517400	0.074133
C41	C	0.482800	0.194400	0.687700	0.185944
C42	C	0.399900	0.493700	0.819600	-0.253806
C43	C	0.435100	0.204700	0.890500	-0.220196
C44	C	0.885900	0.015700	0.451200	-0.220196
C45	C	0.378700	0.585700	0.864200	0.194020
C46	C	0.917800	0.607500	0.601800	-0.220196
C47	C	0.373400	0.500400	0.016300	0.194020
C48	C	0.813900	0.696900	0.636000	0.185944
C49	C	0.770000	0.964500	0.646600	0.185944
C50	C	0.878100	0.972600	0.618600	-0.220196
N1	N	0.702000	0.027000	0.177800	-0.382157
N2	N	0.522500	0.894600	0.253700	-0.382157
N3	N	0.266300	0.266300	0.406500	-0.382157
N4	N	0.281600	0.021900	0.417100	-0.382157
N5	N	0.636400	0.407500	0.038400	-0.473892
N6	N	0.298000	0.973000	0.822200	-0.382157
N7	N	0.477500	0.105400	0.746300	-0.382157
N8	N	0.733700	0.733700	0.593500	-0.382157
N9	N	0.718400	0.978100	0.582900	-0.382157
N10	N	0.363600	0.592500	0.961600	-0.473892
Cl1	Cl	0.622380	0.905610	0.428340	-0.573920
Cl2	Cl	0.425440	0.158950	0.165760	-0.540489
Cl3	Cl	0.572300	0.216770	0.356970	-0.540489
Cl4	Cl	0.377620	0.094390	0.571660	-0.573920
Cl5	Cl	0.574560	0.841050	0.834240	-0.540489
Cl6	Cl	0.427700	0.783230	0.643030	-0.540489
