data_HAFQOW_clean_PM
_symmetry_space_group_name_H-M	'P1'
_cell_length_a	6.601800
_cell_length_b	13.891100
_cell_length_c	15.954000
_cell_angle_alpha	90.000000
_cell_angle_beta	90.000000
_cell_angle_gamma	91.698998
_symmetry_Int_Tables_number 1

loop_
_symmetry_equiv_pos_as_xyz
'x,y,z'

loop_
_atom_site_label
_atom_site_type_symbol
_atom_site_fract_x
_atom_site_fract_y
_atom_site_fract_z
_atom_site_charge
Al1	Al	0.000000	0.000000	0.000000	1.752560
Al2	Al	0.500000	0.500000	0.500000	1.752560
Al3	Al	0.500000	0.000000	0.000000	1.752560
Al4	Al	0.000000	0.500000	0.500000	1.752560
H1	H	0.238130	0.885170	0.980400	0.408076
H2	H	0.567790	0.295230	0.690770	0.102629
H3	H	0.562650	0.192530	0.805030	0.102629
H4	H	0.962480	0.295190	0.691900	0.102629
H5	H	0.957030	0.192480	0.806160	0.102629
H6	H	0.261870	0.614830	0.480400	0.408076
H7	H	0.932210	0.204770	0.190770	0.102629
H8	H	0.937350	0.307470	0.305030	0.102629
H9	H	0.537520	0.204810	0.191900	0.102629
H10	H	0.542970	0.307520	0.306160	0.102629
H11	H	0.761870	0.114830	0.019600	0.408076
H12	H	0.432210	0.704770	0.309230	0.102629
H13	H	0.437350	0.807470	0.194970	0.102629
H14	H	0.037520	0.704810	0.308100	0.102629
H15	H	0.042970	0.807520	0.193840	0.102629
H16	H	0.738130	0.385170	0.519600	0.408076
H17	H	0.067790	0.795230	0.809230	0.102629
H18	H	0.062650	0.692530	0.694970	0.102629
H19	H	0.462480	0.795190	0.808100	0.102629
H20	H	0.457030	0.692480	0.693840	0.102629
C1	C	0.269300	0.376230	0.610000	0.724014
C2	C	0.265820	0.306950	0.681570	-0.129388
C3	C	0.444940	0.275120	0.714370	-0.067884
C4	C	0.256130	0.119690	0.892870	0.724014
C5	C	0.259310	0.182060	0.816680	-0.129388
C6	C	0.441920	0.213180	0.782370	-0.067884
C7	C	0.083210	0.275110	0.715060	-0.067884
C8	C	0.079880	0.213170	0.783060	-0.067884
C9	C	0.230700	0.123770	0.110000	0.724014
C10	C	0.234180	0.193050	0.181570	-0.129388
C11	C	0.055060	0.224880	0.214370	-0.067884
C12	C	0.243870	0.380310	0.392870	0.724014
C13	C	0.240690	0.317940	0.316680	-0.129388
C14	C	0.058080	0.286820	0.282370	-0.067884
C15	C	0.416790	0.224890	0.215060	-0.067884
C16	C	0.420120	0.286830	0.283060	-0.067884
C17	C	0.730700	0.623770	0.390000	0.724014
C18	C	0.734180	0.693050	0.318430	-0.129388
C19	C	0.555060	0.724880	0.285630	-0.067884
C20	C	0.743870	0.880310	0.107130	0.724014
C21	C	0.740690	0.817940	0.183320	-0.129388
C22	C	0.558080	0.786820	0.217630	-0.067884
C23	C	0.916790	0.724890	0.284940	-0.067884
C24	C	0.920120	0.786830	0.216940	-0.067884
C25	C	0.769300	0.876230	0.890000	0.724014
C26	C	0.765820	0.806950	0.818430	-0.129388
C27	C	0.944940	0.775120	0.785630	-0.067884
C28	C	0.756130	0.619690	0.607130	0.724014
C29	C	0.759310	0.682060	0.683320	-0.129388
C30	C	0.941920	0.713180	0.717630	-0.067884
C31	C	0.583210	0.775110	0.784940	-0.067884
C32	C	0.579880	0.713170	0.716940	-0.067884
O1	O	0.243580	0.941890	0.993110	-1.018349
O2	O	0.085630	0.096010	0.922610	-0.617629
O3	O	0.101210	0.401750	0.581830	-0.617629
O4	O	0.424220	0.093960	0.920740	-0.617629
O5	O	0.440250	0.403800	0.582700	-0.617629
O6	O	0.256420	0.558110	0.493110	-1.018349
O7	O	0.414370	0.403990	0.422610	-0.617629
O8	O	0.398790	0.098250	0.081830	-0.617629
O9	O	0.075780	0.406040	0.420740	-0.617629
O10	O	0.059750	0.096200	0.082700	-0.617629
O11	O	0.756420	0.058110	0.006890	-1.018349
O12	O	0.914370	0.903990	0.077390	-0.617629
O13	O	0.898790	0.598250	0.418170	-0.617629
O14	O	0.575780	0.906040	0.079260	-0.617629
O15	O	0.559750	0.596200	0.417300	-0.617629
O16	O	0.743580	0.441890	0.506890	-1.018349
O17	O	0.585630	0.596010	0.577390	-0.617629
O18	O	0.601210	0.901750	0.918170	-0.617629
O19	O	0.924220	0.593960	0.579260	-0.617629
O20	O	0.940250	0.903800	0.917300	-0.617629
