data_HAPVAX_clean_PM
_symmetry_space_group_name_H-M	'P1'
_cell_length_a	11.618200
_cell_length_b	13.113400
_cell_length_c	15.588700
_cell_angle_alpha	90.000000
_cell_angle_beta	90.000000
_cell_angle_gamma	90.000000
_symmetry_Int_Tables_number 1

loop_
_symmetry_equiv_pos_as_xyz
'x,y,z'

loop_
_atom_site_label
_atom_site_type_symbol
_atom_site_fract_x
_atom_site_fract_y
_atom_site_fract_z
_atom_site_charge
Ce1	Ce	0.750000	0.061210	0.713650	2.304942
Ce2	Ce	0.250000	0.561210	0.786350	2.304942
Ce3	Ce	0.250000	0.938790	0.286350	2.304942
Ce4	Ce	0.750000	0.438790	0.213650	2.304942
U1	U	0.750000	0.342950	0.753000	2.378300
U2	U	0.250000	0.842950	0.747000	2.378300
U3	U	0.250000	0.657050	0.247000	2.378300
U4	U	0.750000	0.157050	0.253000	2.378300
U5	U	0.000000	0.000000	0.000000	1.520252
U6	U	0.000000	0.500000	0.500000	1.520252
U7	U	0.500000	0.000000	0.000000	1.520252
U8	U	0.500000	0.500000	0.500000	1.520252
C1	C	0.870200	0.718900	0.768600	-0.095428
C2	C	0.000800	0.719500	0.766100	0.775935
C3	C	0.810200	0.797100	0.809200	-0.104344
C4	C	0.873400	0.881200	0.855000	0.782401
C5	C	0.874100	0.566300	0.672800	0.751296
C6	C	0.809800	0.640400	0.727700	-0.109451
C7	C	0.129800	0.218900	0.731400	-0.095428
C8	C	0.999200	0.219500	0.733900	0.775935
C9	C	0.189800	0.297100	0.690800	-0.104344
C10	C	0.126600	0.381200	0.645000	0.782401
C11	C	0.125900	0.066300	0.827200	0.751296
C12	C	0.190200	0.140400	0.772300	-0.109451
C13	C	0.370200	0.281100	0.231400	-0.095428
C14	C	0.500800	0.280500	0.233900	0.775935
C15	C	0.310200	0.202900	0.190800	-0.104344
C16	C	0.373400	0.118800	0.145000	0.782401
C17	C	0.374100	0.433700	0.327200	0.751296
C18	C	0.309800	0.359600	0.272300	-0.109451
C19	C	0.629800	0.781100	0.268600	-0.095428
C20	C	0.499200	0.780500	0.266100	0.775935
C21	C	0.689800	0.702900	0.309200	-0.104344
C22	C	0.626600	0.618800	0.355000	0.782401
C23	C	0.625900	0.933700	0.172800	0.751296
C24	C	0.690200	0.859600	0.227700	-0.109451
C25	C	0.129800	0.281100	0.231400	-0.095428
C26	C	0.999200	0.280500	0.233900	0.775935
C27	C	0.189800	0.202900	0.190800	-0.104344
C28	C	0.126600	0.118800	0.145000	0.782401
C29	C	0.125900	0.433700	0.327200	0.751296
C30	C	0.190200	0.359600	0.272300	-0.109451
C31	C	0.870200	0.781100	0.268600	-0.095428
C32	C	0.000800	0.780500	0.266100	0.775935
C33	C	0.810200	0.702900	0.309200	-0.104344
C34	C	0.873400	0.618800	0.355000	0.782401
C35	C	0.874100	0.933700	0.172800	0.751296
C36	C	0.809800	0.859600	0.227700	-0.109451
C37	C	0.629800	0.718900	0.768600	-0.095428
C38	C	0.499200	0.719500	0.766100	0.775935
C39	C	0.689800	0.797100	0.809200	-0.104344
C40	C	0.626600	0.881200	0.855000	0.782401
C41	C	0.625900	0.566300	0.672800	0.751296
C42	C	0.690200	0.640400	0.727700	-0.109451
C43	C	0.370200	0.218900	0.731400	-0.095428
C44	C	0.500800	0.219500	0.733900	0.775935
C45	C	0.310200	0.297100	0.690800	-0.104344
C46	C	0.373400	0.381200	0.645000	0.782401
C47	C	0.374100	0.066300	0.827200	0.751296
C48	C	0.309800	0.140400	0.772300	-0.109451
O1	O	0.925300	0.857400	0.923200	-0.636881
O2	O	0.870800	0.969700	0.826200	-0.716203
O3	O	0.931100	0.604800	0.612300	-0.621497
O4	O	0.868100	0.472400	0.685500	-0.678102
O5	O	0.047000	0.800700	0.738600	-0.697701
O6	O	0.051400	0.641000	0.791000	-0.712323
O7	O	0.074700	0.357400	0.576800	-0.636881
O8	O	0.129200	0.469700	0.673800	-0.716203
O9	O	0.068900	0.104800	0.887700	-0.621497
O10	O	0.131900	0.972400	0.814500	-0.678102
O11	O	0.953000	0.300700	0.761400	-0.697701
O12	O	0.948600	0.141000	0.709000	-0.712323
O13	O	0.425300	0.142600	0.076800	-0.636881
O14	O	0.370800	0.030300	0.173800	-0.716203
O15	O	0.431100	0.395200	0.387700	-0.621497
O16	O	0.368100	0.527600	0.314500	-0.678102
O17	O	0.547000	0.199300	0.261400	-0.697701
O18	O	0.551400	0.359000	0.209000	-0.712323
O19	O	0.574700	0.642600	0.423200	-0.636881
O20	O	0.629200	0.530300	0.326200	-0.716203
O21	O	0.568900	0.895200	0.112300	-0.621497
O22	O	0.631900	0.027600	0.185500	-0.678102
O23	O	0.453000	0.699300	0.238600	-0.697701
O24	O	0.448600	0.859000	0.291000	-0.712323
O25	O	0.074700	0.142600	0.076800	-0.636881
O26	O	0.129200	0.030300	0.173800	-0.716203
O27	O	0.068900	0.395200	0.387700	-0.621497
O28	O	0.131900	0.527600	0.314500	-0.678102
O29	O	0.953000	0.199300	0.261400	-0.697701
O30	O	0.948600	0.359000	0.209000	-0.712323
O31	O	0.925300	0.642600	0.423200	-0.636881
O32	O	0.870800	0.530300	0.326200	-0.716203
O33	O	0.931100	0.895200	0.112300	-0.621497
O34	O	0.868100	0.027600	0.185500	-0.678102
O35	O	0.047000	0.699300	0.238600	-0.697701
O36	O	0.051400	0.859000	0.291000	-0.712323
O37	O	0.574700	0.857400	0.923200	-0.636881
O38	O	0.629200	0.969700	0.826200	-0.716203
O39	O	0.568900	0.604800	0.612300	-0.621497
O40	O	0.631900	0.472400	0.685500	-0.678102
O41	O	0.453000	0.800700	0.738600	-0.697701
O42	O	0.448600	0.641000	0.791000	-0.712323
O43	O	0.425300	0.357400	0.576800	-0.636881
O44	O	0.370800	0.469700	0.673800	-0.716203
O45	O	0.431100	0.104800	0.887700	-0.621497
O46	O	0.368100	0.972400	0.814500	-0.678102
O47	O	0.547000	0.300700	0.761400	-0.697701
O48	O	0.551400	0.141000	0.709000	-0.712323
O49	O	0.750000	0.266400	0.658900	-1.039450
O50	O	0.750000	0.192300	0.822100	-1.039450
O51	O	0.250000	0.766400	0.841100	-1.039450
O52	O	0.250000	0.692300	0.677900	-1.039450
O53	O	0.250000	0.733600	0.341100	-1.039450
O54	O	0.250000	0.807700	0.177900	-1.039450
O55	O	0.750000	0.233600	0.158900	-1.039450
O56	O	0.750000	0.307700	0.322100	-1.039450
