data_HEDBUP_clean_PM
_symmetry_space_group_name_H-M	'P1'
_cell_length_a	8.320300
_cell_length_b	15.836700
_cell_length_c	21.504700
_cell_angle_alpha	90.000000
_cell_angle_beta	90.000000
_cell_angle_gamma	90.000000
_symmetry_Int_Tables_number 1

loop_
_symmetry_equiv_pos_as_xyz
'x,y,z'

loop_
_atom_site_label
_atom_site_type_symbol
_atom_site_fract_x
_atom_site_fract_y
_atom_site_fract_z
_atom_site_charge
Nd1	Nd	0.145480	0.156500	0.727720	1.458607
Nd2	Nd	0.854520	0.843500	0.227720	1.458607
Nd3	Nd	0.354520	0.656500	0.727720	1.458607
Nd4	Nd	0.645480	0.343500	0.227720	1.458607
U1	U	0.977040	0.644190	0.976080	2.030023
U2	U	0.984070	0.366250	0.971880	2.030023
U3	U	0.022960	0.355810	0.476080	2.030023
U4	U	0.015930	0.633750	0.471880	2.030023
U5	U	0.522960	0.144190	0.976080	2.030023
U6	U	0.515930	0.866250	0.971880	2.030023
U7	U	0.477040	0.855810	0.476080	2.030023
U8	U	0.484070	0.133750	0.471880	2.030023
C1	C	0.017800	0.186900	0.978100	0.560265
C2	C	0.021500	0.092800	0.980600	-0.092719
C3	C	0.014500	0.916000	0.979300	-0.092719
C4	C	0.011600	0.821800	0.981200	0.560265
C5	C	0.190100	0.912500	0.882900	0.697390
C6	C	0.198700	0.092600	0.883700	0.783410
C7	C	0.834100	0.095400	0.075200	0.697390
C8	C	0.100300	0.959700	0.935100	-0.079795
C9	C	0.923900	0.961900	0.024000	-0.113121
C10	C	0.107400	0.047800	0.934700	-0.113121
C11	C	0.928400	0.049400	0.025300	-0.079795
C12	C	0.824300	0.915900	0.072900	0.783410
C13	C	0.982200	0.813100	0.478100	0.560265
C14	C	0.978500	0.907200	0.480600	-0.092719
C15	C	0.985500	0.084000	0.479300	-0.092719
C16	C	0.988400	0.178200	0.481200	0.560265
C17	C	0.809900	0.087500	0.382900	0.697390
C18	C	0.801300	0.907400	0.383700	0.783410
C19	C	0.165900	0.904600	0.575200	0.697390
C20	C	0.899700	0.040300	0.435100	-0.079795
C21	C	0.076100	0.038100	0.524000	-0.113121
C22	C	0.892600	0.952200	0.434700	-0.113121
C23	C	0.071600	0.950600	0.525300	-0.079795
C24	C	0.175700	0.084100	0.572900	0.783410
C25	C	0.482200	0.686900	0.978100	0.560265
C26	C	0.478500	0.592800	0.980600	-0.092719
C27	C	0.485500	0.416000	0.979300	-0.092719
C28	C	0.488400	0.321800	0.981200	0.560265
C29	C	0.309900	0.412500	0.882900	0.697390
C30	C	0.301300	0.592600	0.883700	0.783410
C31	C	0.665900	0.595400	0.075200	0.697390
C32	C	0.399700	0.459700	0.935100	-0.079795
C33	C	0.576100	0.461900	0.024000	-0.113121
C34	C	0.392600	0.547800	0.934700	-0.113121
C35	C	0.571600	0.549400	0.025300	-0.079795
C36	C	0.675700	0.415900	0.072900	0.783410
C37	C	0.517800	0.313100	0.478100	0.560265
C38	C	0.521500	0.407200	0.480600	-0.092719
C39	C	0.514500	0.584000	0.479300	-0.092719
C40	C	0.511600	0.678200	0.481200	0.560265
C41	C	0.690100	0.587500	0.382900	0.697390
C42	C	0.698700	0.407400	0.383700	0.783410
C43	C	0.334100	0.404600	0.575200	0.697390
C44	C	0.600300	0.540300	0.435100	-0.079795
C45	C	0.423900	0.538100	0.524000	-0.113121
C46	C	0.607400	0.452200	0.434700	-0.113121
C47	C	0.428400	0.450600	0.525300	-0.079795
C48	C	0.324300	0.584100	0.572900	0.783410
O1	O	0.957500	0.228000	0.023800	-0.648514
O2	O	0.077600	0.226100	0.933400	-0.648514
O3	O	0.939500	0.783400	0.024200	-0.648514
O4	O	0.334600	0.895600	0.889000	-0.722209
O5	O	0.111500	0.900400	0.834100	-0.526603
O6	O	0.341800	0.117600	0.893600	-0.667144
O7	O	0.133000	0.093700	0.832000	-0.739798
O8	O	0.884000	0.907500	0.125000	-0.739798
O9	O	0.684600	0.892700	0.058300	-0.667144
O10	O	0.923600	0.505100	0.952700	-1.123946
O11	O	0.689300	0.116400	0.062200	-0.722209
O12	O	0.900100	0.108400	0.125800	-0.526603
O13	O	0.083300	0.781500	0.939100	-0.648514
O14	O	0.042500	0.772000	0.523800	-0.648514
O15	O	0.922400	0.773900	0.433400	-0.648514
O16	O	0.060500	0.216600	0.524200	-0.648514
O17	O	0.665400	0.104400	0.389000	-0.722209
O18	O	0.888500	0.099600	0.334100	-0.526603
O19	O	0.658200	0.882400	0.393600	-0.667144
O20	O	0.867000	0.906300	0.332000	-0.739798
O21	O	0.116000	0.092500	0.625000	-0.739798
O22	O	0.315400	0.107300	0.558300	-0.667144
O23	O	0.076400	0.494900	0.452700	-1.123946
O24	O	0.310700	0.883600	0.562200	-0.722209
O25	O	0.099900	0.891600	0.625800	-0.526603
O26	O	0.916700	0.218500	0.439100	-0.648514
O27	O	0.542500	0.728000	0.023800	-0.648514
O28	O	0.422400	0.726100	0.933400	-0.648514
O29	O	0.560500	0.283400	0.024200	-0.648514
O30	O	0.165400	0.395600	0.889000	-0.722209
O31	O	0.388500	0.400400	0.834100	-0.526603
O32	O	0.158200	0.617600	0.893600	-0.667144
O33	O	0.367000	0.593700	0.832000	-0.739798
O34	O	0.616000	0.407500	0.125000	-0.739798
O35	O	0.815400	0.392700	0.058300	-0.667144
O36	O	0.576400	0.005100	0.952700	-1.123946
O37	O	0.810700	0.616400	0.062200	-0.722209
O38	O	0.599900	0.608400	0.125800	-0.526603
O39	O	0.416700	0.281500	0.939100	-0.648514
O40	O	0.457500	0.272000	0.523800	-0.648514
O41	O	0.577600	0.273900	0.433400	-0.648514
O42	O	0.439500	0.716600	0.524200	-0.648514
O43	O	0.834600	0.604400	0.389000	-0.722209
O44	O	0.611500	0.599600	0.334100	-0.526603
O45	O	0.841800	0.382400	0.393600	-0.667144
O46	O	0.633000	0.406300	0.332000	-0.739798
O47	O	0.384000	0.592500	0.625000	-0.739798
O48	O	0.184600	0.607300	0.558300	-0.667144
O49	O	0.423600	0.994900	0.452700	-1.123946
O50	O	0.189300	0.383600	0.562200	-0.722209
O51	O	0.400100	0.391600	0.625800	-0.526603
O52	O	0.583300	0.718500	0.439100	-0.648514
