data_HIWKII_clean_PM
_symmetry_space_group_name_H-M	'P1'
_cell_length_a	10.941300
_cell_length_b	10.941300
_cell_length_c	12.052000
_cell_angle_alpha	76.893199
_cell_angle_beta	76.893199
_cell_angle_gamma	86.985498
_symmetry_Int_Tables_number 1

loop_
_symmetry_equiv_pos_as_xyz
'x,y,z'

loop_
_atom_site_label
_atom_site_type_symbol
_atom_site_fract_x
_atom_site_fract_y
_atom_site_fract_z
_atom_site_charge
Mn1	Mn	0.692820	0.768500	0.857610	1.208678
Mn2	Mn	0.231500	0.307180	0.642390	1.208678
Mn3	Mn	0.307180	0.231500	0.142390	1.208678
Mn4	Mn	0.768500	0.692820	0.357610	1.208678
Nb1	Nb	0.705060	0.294940	0.750000	0.270396
Nb2	Nb	0.294940	0.705060	0.250000	0.270396
H1	H	0.507800	0.722000	0.579700	0.154450
H2	H	0.422200	0.634800	0.922900	0.154450
H3	H	0.278000	0.492200	0.920300	0.154450
H4	H	0.365200	0.577800	0.577100	0.154450
H5	H	0.492200	0.278000	0.420300	0.154450
H6	H	0.577800	0.365200	0.077100	0.154450
H7	H	0.722000	0.507800	0.079700	0.154450
H8	H	0.634800	0.422200	0.422900	0.154450
C1	C	0.687250	0.083730	0.799000	0.102654
C2	C	0.778010	0.233250	0.914300	-0.036817
C3	C	0.731450	0.463030	0.599670	0.102654
C4	C	0.702900	0.471880	0.818990	0.102654
C5	C	0.460080	0.676660	0.649500	-0.040759
C6	C	0.409080	0.625080	0.851800	-0.040759
C7	C	0.916270	0.312750	0.701000	0.102654
C8	C	0.766750	0.221990	0.585700	-0.036817
C9	C	0.536970	0.268550	0.900330	0.102654
C10	C	0.528120	0.297100	0.681010	0.102654
C11	C	0.323340	0.539920	0.850500	-0.040759
C12	C	0.374920	0.590920	0.648200	-0.040759
C13	C	0.312750	0.916270	0.201000	0.102654
C14	C	0.221990	0.766750	0.085700	-0.036817
C15	C	0.268550	0.536970	0.400330	0.102654
C16	C	0.297100	0.528120	0.181010	0.102654
C17	C	0.539920	0.323340	0.350500	-0.040759
C18	C	0.590920	0.374920	0.148200	-0.040759
C19	C	0.083730	0.687250	0.299000	0.102654
C20	C	0.233250	0.778010	0.414300	-0.036817
C21	C	0.463030	0.731450	0.099670	0.102654
C22	C	0.471880	0.702900	0.318990	0.102654
C23	C	0.676660	0.460080	0.149500	-0.040759
C24	C	0.625080	0.409080	0.351800	-0.040759
N1	N	0.682820	0.976120	0.823900	-0.455260
N2	N	0.815100	0.200500	0.997100	-0.412073
N3	N	0.743600	0.547480	0.521040	-0.455260
N4	N	0.701360	0.562320	0.852480	-0.455260
N5	N	0.475070	0.695590	0.751730	0.393464
N6	N	0.023880	0.317180	0.676100	-0.455260
N7	N	0.799500	0.184900	0.502900	-0.412073
N8	N	0.452520	0.256400	0.978960	-0.455260
N9	N	0.437680	0.298640	0.647520	-0.455260
N10	N	0.304410	0.524930	0.748270	0.393464
N11	N	0.317180	0.023880	0.176100	-0.455260
N12	N	0.184900	0.799500	0.002900	-0.412073
N13	N	0.256400	0.452520	0.478960	-0.455260
N14	N	0.298640	0.437680	0.147520	-0.455260
N15	N	0.524930	0.304410	0.248270	0.393464
N16	N	0.976120	0.682820	0.323900	-0.455260
N17	N	0.200500	0.815100	0.497100	-0.412073
N18	N	0.547480	0.743600	0.021040	-0.455260
N19	N	0.562320	0.701360	0.352480	-0.455260
N20	N	0.695590	0.475070	0.251730	0.393464
O1	O	0.552470	0.782790	0.751740	-0.458016
O2	O	0.217210	0.447530	0.748260	-0.458016
O3	O	0.447530	0.217210	0.248260	-0.458016
O4	O	0.782790	0.552470	0.251740	-0.458016
