data_HIWXER_clean_PM
_symmetry_space_group_name_H-M	'P1'
_cell_length_a	8.441100
_cell_length_b	9.106592
_cell_length_c	14.232692
_cell_angle_alpha	71.709057
_cell_angle_beta	72.750205
_cell_angle_gamma	62.389397
_symmetry_Int_Tables_number 1

loop_
_symmetry_equiv_pos_as_xyz
'x,y,z'

loop_
_atom_site_label
_atom_site_type_symbol
_atom_site_fract_x
_atom_site_fract_y
_atom_site_fract_z
_atom_site_charge
Zn1	Zn	0.844550	0.078660	0.366680	0.855250
Zn2	Zn	0.220030	0.719900	0.470740	0.817230
Zn3	Zn	0.289890	0.421340	0.133320	0.855250
Zn4	Zn	0.410670	0.780100	0.029260	0.817230
Zn5	Zn	0.155450	0.921340	0.633320	0.855250
Zn6	Zn	0.779970	0.280100	0.529260	0.817230
Zn7	Zn	0.710110	0.578660	0.866680	0.855250
Zn8	Zn	0.589330	0.219900	0.970740	0.817230
Zn9	Zn	0.122200	0.750000	0.250000	0.845723
Zn10	Zn	0.877800	0.250000	0.750000	0.845723
H1	H	0.954000	0.770000	0.422000	0.405244
H2	H	0.815000	0.006000	0.550000	0.368999
H3	H	0.146000	0.730000	0.078000	0.405244
H4	H	0.371000	0.494000	0.950000	0.368999
H5	H	0.046000	0.230000	0.578000	0.405244
H6	H	0.185000	0.994000	0.450000	0.368999
H7	H	0.854000	0.270000	0.922000	0.405244
H8	H	0.629000	0.506000	0.050000	0.368999
C1	C	0.658710	0.188550	0.180430	0.583638
C2	C	0.506430	0.400450	0.274690	0.571693
C3	C	0.027690	0.311450	0.319570	0.583638
C4	C	0.181570	0.099550	0.225310	0.571693
C5	C	0.341290	0.811450	0.819570	0.583638
C6	C	0.493570	0.599550	0.725310	0.571693
C7	C	0.972310	0.688550	0.680430	0.583638
C8	C	0.818430	0.900450	0.774690	0.571693
N1	N	0.522630	0.342890	0.192850	-0.617516
N2	N	0.776360	0.074290	0.241390	-0.407878
N3	N	0.878980	0.941680	0.194960	-0.025457
N4	N	0.828850	0.972060	0.110840	-0.104402
N5	N	0.691210	0.126630	0.098950	-0.362229
N6	N	0.615260	0.323140	0.344340	-0.372599
N7	N	0.545080	0.421360	0.412280	-0.110473
N8	N	0.402510	0.552920	0.384660	-0.058866
N9	N	0.372860	0.546910	0.297770	-0.384948
N10	N	0.058370	0.157110	0.307150	-0.617516
N11	N	0.092040	0.425710	0.258610	-0.407878
N12	N	0.015620	0.558320	0.305040	-0.025457
N13	N	0.911750	0.527940	0.389160	-0.104402
N14	N	0.916790	0.373370	0.401050	-0.362229
N15	N	0.282740	0.176860	0.155660	-0.372599
N16	N	0.378720	0.078640	0.087720	-0.110473
N17	N	0.340090	0.947080	0.115340	-0.058866
N18	N	0.217540	0.953090	0.202230	-0.384948
N19	N	0.477370	0.657110	0.807150	-0.617516
N20	N	0.223640	0.925710	0.758610	-0.407878
N21	N	0.121020	0.058320	0.805040	-0.025457
N22	N	0.171150	0.027940	0.889160	-0.104402
N23	N	0.308790	0.873370	0.901050	-0.362229
N24	N	0.384740	0.676860	0.655660	-0.372599
N25	N	0.454920	0.578640	0.587720	-0.110473
N26	N	0.597490	0.447080	0.615340	-0.058866
N27	N	0.627140	0.453090	0.702230	-0.384948
N28	N	0.941630	0.842890	0.692850	-0.617516
N29	N	0.907960	0.574290	0.741390	-0.407878
N30	N	0.984380	0.441680	0.694960	-0.025457
N31	N	0.088250	0.472060	0.610840	-0.104402
N32	N	0.083210	0.626630	0.598950	-0.362229
N33	N	0.717260	0.823140	0.844340	-0.372599
N34	N	0.621280	0.921360	0.912280	-0.110473
N35	N	0.659910	0.052920	0.884660	-0.058866
N36	N	0.782460	0.046910	0.797770	-0.384948
O1	O	0.017550	0.820210	0.387690	-0.804805
O2	O	0.761780	0.089090	0.511150	-0.775740
O3	O	0.225450	0.679790	0.112310	-0.804805
O4	O	0.362020	0.410910	0.988850	-0.775740
O5	O	0.982450	0.179790	0.612310	-0.804805
O6	O	0.238220	0.910910	0.488850	-0.775740
O7	O	0.774550	0.320210	0.887690	-0.804805
O8	O	0.637980	0.589090	0.011150	-0.775740
