data_HURQUG_clean_PM
_symmetry_space_group_name_H-M	'P1'
_cell_length_a	9.419300
_cell_length_b	9.419300
_cell_length_c	17.475700
_cell_angle_alpha	90.000000
_cell_angle_beta	90.000000
_cell_angle_gamma	120.000000
_symmetry_Int_Tables_number 1

loop_
_symmetry_equiv_pos_as_xyz
'x,y,z'

loop_
_atom_site_label
_atom_site_type_symbol
_atom_site_fract_x
_atom_site_fract_y
_atom_site_fract_z
_atom_site_charge
Ce1	Ce	0.333330	0.666660	0.750000	2.230709
Ce2	Ce	0.666670	0.333340	0.250000	2.230709
Ce3	Ce	0.000000	0.000000	0.000000	2.166424
Ce4	Ce	0.000000	0.000000	0.500000	2.166424
H1	H	0.568770	0.594920	0.921330	0.096164
H2	H	0.503510	0.676260	0.977710	0.096164
H3	H	0.026150	0.431230	0.921330	0.096164
H4	H	0.172750	0.496490	0.977710	0.096164
H5	H	0.405080	0.973850	0.921330	0.096164
H6	H	0.323740	0.827250	0.977710	0.096164
H7	H	0.568770	0.594920	0.578670	0.096164
H8	H	0.503510	0.676260	0.522290	0.096164
H9	H	0.026150	0.431230	0.578670	0.096164
H10	H	0.172750	0.496490	0.522290	0.096164
H11	H	0.405080	0.973850	0.578670	0.096164
H12	H	0.323740	0.827250	0.522290	0.096164
H13	H	0.973850	0.405080	0.078670	0.096164
H14	H	0.827250	0.323740	0.022290	0.096164
H15	H	0.594920	0.568770	0.078670	0.096164
H16	H	0.676260	0.503510	0.022290	0.096164
H17	H	0.431230	0.026150	0.078670	0.096164
H18	H	0.496490	0.172750	0.022290	0.096164
H19	H	0.973850	0.405080	0.421330	0.096164
H20	H	0.827250	0.323740	0.477710	0.096164
H21	H	0.594920	0.568770	0.421330	0.096164
H22	H	0.676260	0.503510	0.477710	0.096164
H23	H	0.431230	0.026150	0.421330	0.096164
H24	H	0.496490	0.172750	0.477710	0.096164
C1	C	0.648900	0.833800	0.894900	0.750583
C2	C	0.597100	0.691800	0.948500	-0.045072
C3	C	0.184900	0.351100	0.894900	0.750583
C4	C	0.094700	0.402900	0.948500	-0.045072
C5	C	0.166200	0.815100	0.894900	0.750583
C6	C	0.308200	0.905300	0.948500	-0.045072
C7	C	0.648900	0.833800	0.605100	0.750583
C8	C	0.597100	0.691800	0.551500	-0.045072
C9	C	0.184900	0.351100	0.605100	0.750583
C10	C	0.094700	0.402900	0.551500	-0.045072
C11	C	0.166200	0.815100	0.605100	0.750583
C12	C	0.308200	0.905300	0.551500	-0.045072
C13	C	0.815100	0.166200	0.105100	0.750583
C14	C	0.905300	0.308200	0.051500	-0.045072
C15	C	0.833800	0.648900	0.105100	0.750583
C16	C	0.691800	0.597100	0.051500	-0.045072
C17	C	0.351100	0.184900	0.105100	0.750583
C18	C	0.402900	0.094700	0.051500	-0.045072
C19	C	0.815100	0.166200	0.394900	0.750583
C20	C	0.905300	0.308200	0.448500	-0.045072
C21	C	0.833800	0.648900	0.394900	0.750583
C22	C	0.691800	0.597100	0.448500	-0.045072
C23	C	0.351100	0.184900	0.394900	0.750583
C24	C	0.402900	0.094700	0.448500	-0.045072
O1	O	0.549500	0.821200	0.844400	-0.766339
O2	O	0.789200	0.959500	0.903900	-0.697190
O3	O	0.271700	0.450500	0.844400	-0.766339
O4	O	0.170300	0.210800	0.903900	-0.697190
O5	O	0.178800	0.728300	0.844400	-0.766339
O6	O	0.040500	0.829700	0.903900	-0.697190
O7	O	0.549500	0.821200	0.655600	-0.766339
O8	O	0.789200	0.959500	0.596100	-0.697190
O9	O	0.271700	0.450500	0.655600	-0.766339
O10	O	0.170300	0.210800	0.596100	-0.697190
O11	O	0.178800	0.728300	0.655600	-0.766339
O12	O	0.040500	0.829700	0.596100	-0.697190
O13	O	0.728300	0.178800	0.155600	-0.766339
O14	O	0.829700	0.040500	0.096100	-0.697190
O15	O	0.821200	0.549500	0.155600	-0.766339
O16	O	0.959500	0.789200	0.096100	-0.697190
O17	O	0.450500	0.271700	0.155600	-0.766339
O18	O	0.210800	0.170300	0.096100	-0.697190
O19	O	0.728300	0.178800	0.344400	-0.766339
O20	O	0.829700	0.040500	0.403900	-0.697190
O21	O	0.821200	0.549500	0.344400	-0.766339
O22	O	0.959500	0.789200	0.403900	-0.697190
O23	O	0.450500	0.271700	0.344400	-0.766339
O24	O	0.210800	0.170300	0.403900	-0.697190
O25	O	0.728000	0.728000	0.000000	-0.334329
O26	O	0.000000	0.272000	0.000000	-0.334329
O27	O	0.272000	0.000000	0.000000	-0.334329
O28	O	0.728000	0.728000	0.500000	-0.334329
O29	O	0.000000	0.272000	0.500000	-0.334329
O30	O	0.272000	0.000000	0.500000	-0.334329
