data_IBASEL_clean_PM
_symmetry_space_group_name_H-M	'P1'
_cell_length_a	13.494600
_cell_length_b	13.494600
_cell_length_c	14.912000
_cell_angle_alpha	90.000000
_cell_angle_beta	90.000000
_cell_angle_gamma	120.000001
_symmetry_Int_Tables_number 1

loop_
_symmetry_equiv_pos_as_xyz
'x,y,z'

loop_
_atom_site_label
_atom_site_type_symbol
_atom_site_fract_x
_atom_site_fract_y
_atom_site_fract_z
_atom_site_charge
La1	La	0.333330	0.666660	0.669120	2.092017
La2	La	0.666670	0.333340	0.830880	2.092017
La3	La	0.666670	0.333340	0.330880	2.092017
La4	La	0.333330	0.666660	0.169120	2.092017
Cu1	Cu	0.500000	0.000000	0.500000	0.738665
Cu2	Cu	0.500000	0.500000	0.500000	0.738665
Cu3	Cu	0.000000	0.500000	0.500000	0.738665
Cu4	Cu	0.500000	0.000000	0.000000	0.738665
Cu5	Cu	0.000000	0.500000	0.000000	0.738665
Cu6	Cu	0.500000	0.500000	0.000000	0.738665
H1	H	0.352800	0.025600	0.423300	0.249961
H2	H	0.183300	0.863800	0.477900	0.129798
H3	H	0.255300	0.961800	0.546900	0.129798
H4	H	0.316400	0.919600	0.311500	0.128649
H5	H	0.269600	0.811700	0.373600	0.128649
H6	H	0.672800	0.647200	0.423300	0.249961
H7	H	0.680500	0.816700	0.477900	0.129798
H8	H	0.706500	0.744700	0.546900	0.129798
H9	H	0.603200	0.683600	0.311500	0.128649
H10	H	0.542100	0.730400	0.373600	0.128649
H11	H	0.974400	0.327200	0.423300	0.249961
H12	H	0.136200	0.319500	0.477900	0.129798
H13	H	0.038200	0.293500	0.546900	0.129798
H14	H	0.080400	0.396800	0.311500	0.128649
H15	H	0.188300	0.457900	0.373600	0.128649
H16	H	0.327200	0.974400	0.076700	0.249961
H17	H	0.319500	0.136200	0.022100	0.129798
H18	H	0.293500	0.038200	0.953100	0.129798
H19	H	0.396800	0.080400	0.188500	0.128649
H20	H	0.457900	0.188300	0.126400	0.128649
H21	H	0.025600	0.352800	0.076700	0.249961
H22	H	0.863800	0.183300	0.022100	0.129798
H23	H	0.961800	0.255300	0.953100	0.129798
H24	H	0.919600	0.316400	0.188500	0.128649
H25	H	0.811700	0.269600	0.126400	0.128649
H26	H	0.647200	0.672800	0.076700	0.249961
H27	H	0.816700	0.680500	0.022100	0.129798
H28	H	0.744700	0.706500	0.953100	0.129798
H29	H	0.683600	0.603200	0.188500	0.128649
H30	H	0.730400	0.542100	0.126400	0.128649
H31	H	0.647200	0.974400	0.576700	0.249961
H32	H	0.816700	0.136200	0.522100	0.129798
H33	H	0.744700	0.038200	0.453100	0.129798
H34	H	0.683600	0.080400	0.688500	0.128649
H35	H	0.730400	0.188300	0.626400	0.128649
H36	H	0.327200	0.352800	0.576700	0.249961
H37	H	0.319500	0.183300	0.522100	0.129798
H38	H	0.293500	0.255300	0.453100	0.129798
H39	H	0.396800	0.316400	0.688500	0.128649
H40	H	0.457900	0.269600	0.626400	0.128649
H41	H	0.025600	0.672800	0.576700	0.249961
H42	H	0.863800	0.680500	0.522100	0.129798
H43	H	0.961800	0.706500	0.453100	0.129798
H44	H	0.919600	0.603200	0.688500	0.128649
H45	H	0.811700	0.542100	0.626400	0.128649
H46	H	0.672800	0.025600	0.923300	0.249961
H47	H	0.680500	0.863800	0.977900	0.129798
H48	H	0.706500	0.961800	0.046900	0.129798
H49	H	0.603200	0.919600	0.811500	0.128649
H50	H	0.542100	0.811700	0.873600	0.128649
H51	H	0.974400	0.647200	0.923300	0.249961
H52	H	0.136200	0.816700	0.977900	0.129798
H53	H	0.038200	0.744700	0.046900	0.129798
H54	H	0.080400	0.683600	0.811500	0.128649
H55	H	0.188300	0.730400	0.873600	0.128649
H56	H	0.352800	0.327200	0.923300	0.249961
H57	H	0.183300	0.319500	0.977900	0.129798
H58	H	0.255300	0.293500	0.046900	0.129798
H59	H	0.316400	0.396800	0.811500	0.128649
H60	H	0.269600	0.457900	0.873600	0.128649
C1	C	0.272900	0.819900	0.565900	0.686143
C2	C	0.256300	0.904100	0.508700	-0.190425
C3	C	0.334100	0.887700	0.363200	-0.184728
C4	C	0.439300	0.878400	0.342900	0.705594
C5	C	0.547000	0.727100	0.565900	0.686143
C6	C	0.647800	0.743700	0.508700	-0.190425
C7	C	0.553600	0.665900	0.363200	-0.184728
C8	C	0.439100	0.560700	0.342900	0.705594
C9	C	0.180100	0.453000	0.565900	0.686143
C10	C	0.095900	0.352200	0.508700	-0.190425
C11	C	0.112300	0.446400	0.363200	-0.184728
C12	C	0.121600	0.560900	0.342900	0.705594
C13	C	0.453000	0.180100	0.934100	0.686143
C14	C	0.352200	0.095900	0.991300	-0.190425
C15	C	0.446400	0.112300	0.136800	-0.184728
C16	C	0.560900	0.121600	0.157100	0.705594
C17	C	0.819900	0.272900	0.934100	0.686143
C18	C	0.904100	0.256300	0.991300	-0.190425
C19	C	0.887700	0.334100	0.136800	-0.184728
C20	C	0.878400	0.439300	0.157100	0.705594
C21	C	0.727100	0.547000	0.934100	0.686143
C22	C	0.743700	0.647800	0.991300	-0.190425
C23	C	0.665900	0.553600	0.136800	-0.184728
C24	C	0.560700	0.439100	0.157100	0.705594
C25	C	0.727100	0.180100	0.434100	0.686143
C26	C	0.743700	0.095900	0.491300	-0.190425
C27	C	0.665900	0.112300	0.636800	-0.184728
C28	C	0.560700	0.121600	0.657100	0.705594
C29	C	0.453000	0.272900	0.434100	0.686143
C30	C	0.352200	0.256300	0.491300	-0.190425
C31	C	0.446400	0.334100	0.636800	-0.184728
C32	C	0.560900	0.439300	0.657100	0.705594
C33	C	0.819900	0.547000	0.434100	0.686143
C34	C	0.904100	0.647800	0.491300	-0.190425
C35	C	0.887700	0.553600	0.636800	-0.184728
C36	C	0.878400	0.439100	0.657100	0.705594
C37	C	0.547000	0.819900	0.065900	0.686143
C38	C	0.647800	0.904100	0.008700	-0.190425
C39	C	0.553600	0.887700	0.863200	-0.184728
C40	C	0.439100	0.878400	0.842900	0.705594
C41	C	0.180100	0.727100	0.065900	0.686143
C42	C	0.095900	0.743700	0.008700	-0.190425
C43	C	0.112300	0.665900	0.863200	-0.184728
C44	C	0.121600	0.560700	0.842900	0.705594
C45	C	0.272900	0.453000	0.065900	0.686143
C46	C	0.256300	0.352200	0.008700	-0.190425
C47	C	0.334100	0.446400	0.863200	-0.184728
C48	C	0.439300	0.560900	0.842900	0.705594
N1	N	0.349500	0.959900	0.442200	-0.271781
N2	N	0.610400	0.650500	0.442200	-0.271781
N3	N	0.040100	0.389600	0.442200	-0.271781
N4	N	0.389600	0.040100	0.057800	-0.271781
N5	N	0.959900	0.349500	0.057800	-0.271781
N6	N	0.650500	0.610400	0.057800	-0.271781
N7	N	0.650500	0.040100	0.557800	-0.271781
N8	N	0.389600	0.349500	0.557800	-0.271781
N9	N	0.959900	0.610400	0.557800	-0.271781
N10	N	0.610400	0.959900	0.942200	-0.271781
N11	N	0.040100	0.650500	0.942200	-0.271781
N12	N	0.349500	0.389600	0.942200	-0.271781
O1	O	0.364300	0.817000	0.556000	-0.670320
O2	O	0.198700	0.759700	0.622500	-0.670320
O3	O	0.523700	0.927000	0.395210	-0.562142
O4	O	0.436200	0.823400	0.275900	-0.675548
O5	O	0.452700	0.635700	0.556000	-0.670320
O6	O	0.561000	0.801300	0.622500	-0.670320
O7	O	0.403300	0.476300	0.395210	-0.562142
O8	O	0.387200	0.563800	0.275900	-0.675548
O9	O	0.183000	0.547300	0.556000	-0.670320
O10	O	0.240300	0.439000	0.622500	-0.670320
O11	O	0.073000	0.596700	0.395210	-0.562142
O12	O	0.176600	0.612800	0.275900	-0.675548
O13	O	0.547300	0.183000	0.944000	-0.670320
O14	O	0.439000	0.240300	0.877500	-0.670320
O15	O	0.596700	0.073000	0.104790	-0.562142
O16	O	0.612800	0.176600	0.224100	-0.675548
O17	O	0.817000	0.364300	0.944000	-0.670320
O18	O	0.759700	0.198700	0.877500	-0.670320
O19	O	0.927000	0.523700	0.104790	-0.562142
O20	O	0.823400	0.436200	0.224100	-0.675548
O21	O	0.635700	0.452700	0.944000	-0.670320
O22	O	0.801300	0.561000	0.877500	-0.670320
O23	O	0.476300	0.403300	0.104790	-0.562142
O24	O	0.563800	0.387200	0.224100	-0.675548
O25	O	0.635700	0.183000	0.444000	-0.670320
O26	O	0.801300	0.240300	0.377500	-0.670320
O27	O	0.476300	0.073000	0.604790	-0.562142
O28	O	0.563800	0.176600	0.724100	-0.675548
O29	O	0.547300	0.364300	0.444000	-0.670320
O30	O	0.439000	0.198700	0.377500	-0.670320
O31	O	0.596700	0.523700	0.604790	-0.562142
O32	O	0.612800	0.436200	0.724100	-0.675548
O33	O	0.817000	0.452700	0.444000	-0.670320
O34	O	0.759700	0.561000	0.377500	-0.670320
O35	O	0.927000	0.403300	0.604790	-0.562142
O36	O	0.823400	0.387200	0.724100	-0.675548
O37	O	0.452700	0.817000	0.056000	-0.670320
O38	O	0.561000	0.759700	0.122500	-0.670320
O39	O	0.403300	0.927000	0.895210	-0.562142
O40	O	0.387200	0.823400	0.775900	-0.675548
O41	O	0.183000	0.635700	0.056000	-0.670320
O42	O	0.240300	0.801300	0.122500	-0.670320
O43	O	0.073000	0.476300	0.895210	-0.562142
O44	O	0.176600	0.563800	0.775900	-0.675548
O45	O	0.364300	0.547300	0.056000	-0.670320
O46	O	0.198700	0.439000	0.122500	-0.670320
O47	O	0.523700	0.596700	0.895210	-0.562142
O48	O	0.436200	0.612800	0.775900	-0.675548
