data_IDAZEU_clean_PM
_symmetry_space_group_name_H-M	'P1'
_cell_length_a	8.914200
_cell_length_b	9.180380
_cell_length_c	9.180401
_cell_angle_alpha	76.366441
_cell_angle_beta	60.954599
_cell_angle_gamma	60.954728
_symmetry_Int_Tables_number 1

loop_
_symmetry_equiv_pos_as_xyz
'x,y,z'

loop_
_atom_site_label
_atom_site_type_symbol
_atom_site_fract_x
_atom_site_fract_y
_atom_site_fract_z
_atom_site_charge
Yb1	Yb	0.125000	0.750000	0.250000	1.168278
Yb2	Yb	0.875000	0.250000	0.750000	1.168278
K1	K	0.625000	0.750000	0.250000	0.965729
K2	K	0.375000	0.250000	0.750000	0.965729
C1	C	0.923600	0.520600	0.471800	0.513505
C2	C	0.916000	0.979400	0.028200	0.513505
C3	C	0.895400	0.028200	0.520600	0.513505
C4	C	0.444200	0.471800	0.979400	0.513505
C5	C	0.076400	0.479400	0.528200	0.513505
C6	C	0.084000	0.020600	0.971800	0.513505
C7	C	0.104600	0.971800	0.479400	0.513505
C8	C	0.555800	0.528200	0.020600	0.513505
O1	O	0.914700	0.624320	0.358880	-0.557800
O2	O	0.820900	0.443150	0.547850	-0.489207
O3	O	0.897900	0.875680	0.141120	-0.557800
O4	O	0.811900	0.056850	0.952150	-0.489207
O5	O	0.773580	0.141120	0.624320	-0.557800
O6	O	0.868750	0.952150	0.443150	-0.489207
O7	O	0.539020	0.358880	0.875680	-0.557800
O8	O	0.264050	0.547850	0.056850	-0.489207
O9	O	0.085300	0.375680	0.641120	-0.557800
O10	O	0.179100	0.556850	0.452150	-0.489207
O11	O	0.102100	0.124320	0.858880	-0.557800
O12	O	0.188100	0.943150	0.047850	-0.489207
O13	O	0.226420	0.858880	0.375680	-0.557800
O14	O	0.131250	0.047850	0.556850	-0.489207
O15	O	0.460980	0.641120	0.124320	-0.557800
O16	O	0.735950	0.452150	0.943150	-0.489207
