data_IHIWIF_clean_PM
_symmetry_space_group_name_H-M	'P1'
_cell_length_a	10.941300
_cell_length_b	17.595400
_cell_length_c	18.577300
_cell_angle_alpha	88.849999
_cell_angle_beta	85.813001
_cell_angle_gamma	76.546001
_symmetry_Int_Tables_number 1

loop_
_symmetry_equiv_pos_as_xyz
'x,y,z'

loop_
_atom_site_label
_atom_site_type_symbol
_atom_site_fract_x
_atom_site_fract_y
_atom_site_fract_z
_atom_site_charge
Ba1	Ba	0.598450	0.607560	0.507720	1.604019
Ba2	Ba	0.442450	0.465670	0.243340	1.724698
Ba3	Ba	0.142720	0.648150	0.032390	1.614223
Ba4	Ba	0.202840	0.904520	0.014350	1.595838
Ba5	Ba	0.887000	0.040480	0.737350	1.724940
Ba6	Ba	0.797780	0.822880	0.541880	1.570845
Ba7	Ba	0.401550	0.392440	0.492280	1.604019
Ba8	Ba	0.557550	0.534330	0.756660	1.724698
Ba9	Ba	0.857280	0.351850	0.967610	1.614223
Ba10	Ba	0.797160	0.095480	0.985650	1.595838
Ba11	Ba	0.113000	0.959520	0.262650	1.724940
Ba12	Ba	0.202220	0.177120	0.458120	1.570845
Cr1	Cr	0.889310	0.364750	0.633390	1.593320
Cr2	Cr	0.605100	0.677820	0.174550	1.593589
Cr3	Cr	0.740520	0.855180	0.874110	1.593320
Cr4	Cr	0.255010	0.853780	0.676560	1.593431
Cr5	Cr	0.110690	0.635250	0.366610	1.593320
Cr6	Cr	0.394900	0.322180	0.825450	1.593589
Cr7	Cr	0.259480	0.144820	0.125890	1.593320
Cr8	Cr	0.744990	0.146220	0.323440	1.593431
H1	H	0.210700	0.424200	0.355600	0.450226
H2	H	0.297500	0.342700	0.338200	0.450226
H3	H	0.637700	0.404600	0.369500	0.450226
H4	H	0.599000	0.329700	0.347300	0.450226
H5	H	0.379400	0.880600	0.158500	0.447653
H6	H	0.358100	0.969400	0.142000	0.447653
H7	H	0.051900	0.829800	0.154300	0.447653
H8	H	0.956000	0.906300	0.135900	0.447653
H9	H	0.789300	0.575800	0.644400	0.450226
H10	H	0.702500	0.657300	0.661800	0.450226
H11	H	0.362300	0.595400	0.630500	0.450226
H12	H	0.401000	0.670300	0.652700	0.450226
H13	H	0.620600	0.119400	0.841500	0.447653
H14	H	0.641900	0.030600	0.858000	0.447653
H15	H	0.948100	0.170200	0.845700	0.447653
H16	H	0.044000	0.093700	0.864100	0.447653
C1	C	0.702800	0.408500	0.539550	0.594292
C2	C	0.700700	0.323660	0.562430	0.557834
C3	C	0.897800	0.649480	0.457740	0.577154
C4	C	0.903900	0.576950	0.410790	0.558310
C5	C	0.198800	0.618660	0.222860	0.580906
C6	C	0.083000	0.688400	0.226460	0.538945
C7	C	0.549000	0.614160	0.307290	0.536434
C8	C	0.612200	0.681690	0.322620	0.537971
C9	C	0.378500	0.732560	0.111580	0.536541
C10	C	0.452100	0.661230	0.067400	0.529264
C11	C	0.851800	0.618270	0.124600	0.531759
C12	C	0.814300	0.703360	0.095590	0.531759
C13	C	0.962100	0.821500	0.944210	0.583315
C14	C	0.889400	0.903450	0.969140	0.589810
C15	C	0.533300	0.847360	0.964310	0.533416
C16	C	0.493500	0.921570	0.916730	0.533416
C17	C	0.752200	0.796950	0.735110	0.533585
C18	C	0.815000	0.867380	0.729150	0.565677
C19	C	0.262500	0.845990	0.824910	0.536013
C20	C	0.148700	0.913540	0.810260	0.536434
C21	C	0.482100	0.886220	0.623720	0.535429
C22	C	0.484600	0.802400	0.598950	0.578705
C23	C	0.084100	0.782760	0.621300	0.525251
C24	C	0.091000	0.853220	0.571320	0.525251
C25	C	0.297200	0.591500	0.460450	0.594292
C26	C	0.299300	0.676340	0.437570	0.557834
C27	C	0.102200	0.350520	0.542260	0.577154
C28	C	0.096100	0.423050	0.589210	0.558310
C29	C	0.801200	0.381340	0.777140	0.580906
C30	C	0.917000	0.311600	0.773540	0.538945
C31	C	0.451000	0.385840	0.692710	0.536434
C32	C	0.387800	0.318310	0.677380	0.537971
C33	C	0.621500	0.267440	0.888420	0.536541
C34	C	0.547900	0.338770	0.932600	0.529264
C35	C	0.148200	0.381730	0.875400	0.531759
C36	C	0.185700	0.296640	0.904410	0.531759
C37	C	0.037900	0.178500	0.055790	0.583315
C38	C	0.110600	0.096550	0.030860	0.589810
C39	C	0.466700	0.152640	0.035690	0.533416
C40	C	0.506500	0.078430	0.083270	0.533416
C41	C	0.247800	0.203050	0.264890	0.533585
C42	C	0.185000	0.132620	0.270850	0.565677
C43	C	0.737500	0.154010	0.175090	0.536013
C44	C	0.851300	0.086460	0.189740	0.536434
C45	C	0.517900	0.113780	0.376280	0.535429
C46	C	0.515400	0.197600	0.401050	0.578705
C47	C	0.915900	0.217240	0.378700	0.525251
C48	C	0.909000	0.146780	0.428680	0.525251
O1	O	0.789300	0.435770	0.565340	-0.576511
O2	O	0.622600	0.445150	0.500880	-0.640683
O3	O	0.777900	0.296450	0.610980	-0.630425
O4	O	0.629200	0.290000	0.535900	-0.570486
O5	O	0.983600	0.686390	0.441870	-0.575581
O6	O	0.812700	0.668460	0.505650	-0.627160
O7	O	0.995200	0.563730	0.361940	-0.630425
O8	O	0.823400	0.538880	0.421980	-0.570486
O9	O	0.224400	0.585720	0.284700	-0.796892
O10	O	0.260900	0.598760	0.166070	-0.567044
O11	O	0.031600	0.704820	0.290600	-0.620200
O12	O	0.049500	0.722110	0.170530	-0.595740
O13	O	0.526700	0.609050	0.240780	-0.818788
O14	O	0.523800	0.570770	0.356350	-0.435898
O15	O	0.635600	0.721010	0.266990	-0.601930
O16	O	0.635600	0.692970	0.384710	-0.549070
O17	O	0.437900	0.750920	0.163950	-0.621785
O18	O	0.273100	0.766270	0.095400	-0.564732
O19	O	0.562300	0.631120	0.088270	-0.619365
O20	O	0.402700	0.637800	0.018210	-0.594831
O21	O	0.767700	0.599100	0.168590	-0.619365
O22	O	0.954600	0.575880	0.104740	-0.594831
O23	O	0.703200	0.740970	0.118710	-0.619365
O24	O	0.888200	0.728500	0.054400	-0.594831
O25	O	0.906700	0.789860	0.898640	-0.584586
O26	O	0.065100	0.793820	0.967830	-0.650161
O27	O	0.783750	0.929040	0.940700	-0.586732
O28	O	0.933400	0.940670	0.011120	-0.651803
O29	O	0.647100	0.808250	0.949210	-0.621785
O30	O	0.458800	0.831090	0.010820	-0.564732
O31	O	0.577200	0.929660	0.866650	-0.621785
O32	O	0.389400	0.965600	0.929140	-0.564732
O33	O	0.820200	0.900580	0.789730	-0.798344
O34	O	0.855100	0.888860	0.670610	-0.550322
O35	O	0.713200	0.782770	0.800090	-0.621268
O36	O	0.741600	0.762130	0.680670	-0.575405
O37	O	0.322800	0.812700	0.767710	-0.601930
O38	O	0.289000	0.826640	0.886440	-0.548260
O39	O	0.134200	0.927580	0.742090	-0.818788
O40	O	0.081500	0.947840	0.859970	-0.435898
O41	O	0.378800	0.919540	0.660130	-0.629462
O42	O	0.573400	0.914350	0.609890	-0.582881
O43	O	0.386700	0.777980	0.621460	-0.575581
O44	O	0.574800	0.764250	0.562050	-0.627160
O45	O	0.147200	0.778390	0.677440	-0.620477
O46	O	0.022400	0.736680	0.605080	-0.574921
O47	O	0.168700	0.892990	0.589550	-0.620477
O48	O	0.024800	0.866720	0.520030	-0.574921
O49	O	0.296400	0.394910	0.352190	-0.935454
O50	O	0.567300	0.383410	0.360360	-0.935454
O51	O	0.317800	0.926680	0.147270	-0.938731
O52	O	0.042500	0.884260	0.144010	-0.938731
O53	O	0.210700	0.564230	0.434660	-0.576511
O54	O	0.377400	0.554850	0.499120	-0.640683
O55	O	0.222100	0.703550	0.389020	-0.630425
O56	O	0.370800	0.710000	0.464100	-0.570486
O57	O	0.016400	0.313610	0.558130	-0.575581
O58	O	0.187300	0.331540	0.494350	-0.627160
O59	O	0.004800	0.436270	0.638060	-0.630425
O60	O	0.176600	0.461120	0.578020	-0.570486
O61	O	0.775600	0.414280	0.715300	-0.796892
O62	O	0.739100	0.401240	0.833930	-0.567044
O63	O	0.968400	0.295180	0.709400	-0.620200
O64	O	0.950500	0.277890	0.829470	-0.595740
O65	O	0.473300	0.390950	0.759220	-0.818788
O66	O	0.476200	0.429230	0.643650	-0.435898
O67	O	0.364400	0.278990	0.733010	-0.601930
O68	O	0.364400	0.307030	0.615290	-0.549070
O69	O	0.562100	0.249080	0.836050	-0.621785
O70	O	0.726900	0.233730	0.904600	-0.564732
O71	O	0.437700	0.368880	0.911730	-0.619365
O72	O	0.597300	0.362200	0.981790	-0.594831
O73	O	0.232300	0.400900	0.831410	-0.619365
O74	O	0.045400	0.424120	0.895260	-0.594831
O75	O	0.296800	0.259030	0.881290	-0.619365
O76	O	0.111800	0.271500	0.945600	-0.594831
O77	O	0.093300	0.210140	0.101360	-0.584586
O78	O	0.934900	0.206180	0.032170	-0.650161
O79	O	0.216250	0.070960	0.059300	-0.586732
O80	O	0.066600	0.059330	0.988880	-0.651803
O81	O	0.352900	0.191750	0.050790	-0.621785
O82	O	0.541200	0.168910	0.989180	-0.564732
O83	O	0.422800	0.070340	0.133350	-0.621785
O84	O	0.610600	0.034400	0.070860	-0.564732
O85	O	0.179800	0.099420	0.210270	-0.798344
O86	O	0.144900	0.111140	0.329390	-0.550322
O87	O	0.286800	0.217230	0.199910	-0.621268
O88	O	0.258400	0.237870	0.319330	-0.575405
O89	O	0.677200	0.187300	0.232290	-0.601930
O90	O	0.711000	0.173360	0.113560	-0.548260
O91	O	0.865800	0.072420	0.257910	-0.818788
O92	O	0.918500	0.052160	0.140030	-0.435898
O93	O	0.621200	0.080460	0.339870	-0.629462
O94	O	0.426600	0.085650	0.390110	-0.582881
O95	O	0.613300	0.222020	0.378540	-0.575581
O96	O	0.425200	0.235750	0.437950	-0.627160
O97	O	0.852800	0.221610	0.322560	-0.620477
O98	O	0.977600	0.263320	0.394920	-0.574921
O99	O	0.831300	0.107010	0.410450	-0.620477
O100	O	0.975200	0.133280	0.479970	-0.574921
O101	O	0.703600	0.605090	0.647810	-0.935454
O102	O	0.432700	0.616590	0.639640	-0.935454
O103	O	0.682200	0.073320	0.852730	-0.938731
O104	O	0.957500	0.115740	0.855990	-0.938731
