data_IKETOI_clean_PM
_symmetry_space_group_name_H-M	'P1'
_cell_length_a	6.092200
_cell_length_b	9.963300
_cell_length_c	13.359800
_cell_angle_alpha	68.853000
_cell_angle_beta	81.104004
_cell_angle_gamma	76.848001
_symmetry_Int_Tables_number 1

loop_
_symmetry_equiv_pos_as_xyz
'x,y,z'

loop_
_atom_site_label
_atom_site_type_symbol
_atom_site_fract_x
_atom_site_fract_y
_atom_site_fract_z
_atom_site_charge
Gd1	Gd	0.832140	0.614290	0.195720	2.128345
Gd2	Gd	0.167860	0.385710	0.804290	2.128345
H1	H	0.326900	0.047100	0.028100	0.102312
H2	H	0.704000	0.324800	0.629700	0.102312
H3	H	0.673100	0.952900	0.971900	0.102312
H4	H	0.296000	0.675200	0.370300	0.102312
C1	C	0.288300	0.766100	0.141000	0.745485
C2	C	0.134000	0.893400	0.068700	0.041525
C3	C	0.192100	0.029800	0.015200	0.185989
C4	C	0.950700	0.382600	0.439500	0.647169
C5	C	0.710100	0.444100	0.472800	0.061301
C6	C	0.617200	0.397600	0.577600	0.185281
C7	C	0.088800	0.439900	0.034500	0.568593
C8	C	0.711700	0.233900	0.859000	0.745485
C9	C	0.866000	0.106600	0.931300	0.041525
C10	C	0.807900	0.970200	0.984800	0.185989
C11	C	0.049300	0.617400	0.560500	0.647169
C12	C	0.289900	0.555900	0.527200	0.061301
C13	C	0.382800	0.602400	0.422400	0.185281
C14	C	0.911200	0.560100	0.965500	0.568593
N1	N	0.940100	0.863700	0.054200	-0.411794
N2	N	0.593400	0.546500	0.393300	-0.414770
N3	N	0.059900	0.136300	0.945800	-0.411794
N4	N	0.406600	0.453500	0.606700	-0.414770
O1	O	0.214200	0.649300	0.183700	-0.688311
O2	O	0.479900	0.783400	0.151400	-0.688311
O3	O	0.014200	0.431500	0.341800	-0.723119
O4	O	0.069100	0.290600	0.510200	-0.553281
O5	O	0.084700	0.429500	0.130300	-0.644363
O6	O	0.223000	0.361200	0.987300	-0.644363
O7	O	0.785800	0.350700	0.816300	-0.688311
O8	O	0.520100	0.216600	0.848600	-0.688311
O9	O	0.985800	0.568500	0.658200	-0.723119
O10	O	0.930900	0.709400	0.489800	-0.553281
O11	O	0.915300	0.570500	0.869700	-0.644363
O12	O	0.777000	0.638800	0.012700	-0.644363
