data_IQIJIC_clean_PM
_symmetry_space_group_name_H-M	'P1'
_cell_length_a	13.644000
_cell_length_b	13.644000
_cell_length_c	26.609000
_cell_angle_alpha	99.288598
_cell_angle_beta	99.288598
_cell_angle_gamma	104.464001
_symmetry_Int_Tables_number 1

loop_
_symmetry_equiv_pos_as_xyz
'x,y,z'

loop_
_atom_site_label
_atom_site_type_symbol
_atom_site_fract_x
_atom_site_fract_y
_atom_site_fract_z
_atom_site_charge
Co1	Co	0.422320	0.460840	0.556950	0.930926
Co2	Co	0.539160	0.577680	0.943050	0.930926
Co3	Co	0.577680	0.539160	0.443050	0.930926
Co4	Co	0.460840	0.422320	0.056950	0.930926
Co5	Co	0.500000	0.000000	0.000000	0.866883
Co6	Co	0.000000	0.500000	0.500000	0.866883
H1	H	0.188800	0.283600	0.437300	0.093022
H2	H	0.060000	0.174200	0.369800	0.126027
H3	H	0.196800	0.308200	0.267800	0.126027
H4	H	0.321600	0.421000	0.335700	0.093022
H5	H	0.946500	0.083900	0.307900	0.111203
H6	H	0.322100	0.601300	0.497000	0.076157
H7	H	0.332100	0.770700	0.500000	0.123818
H8	H	0.510700	0.986300	0.593800	0.101429
H9	H	0.550700	0.844300	0.630100	0.123818
H10	H	0.530100	0.672100	0.624500	0.076157
H11	H	0.552300	0.322500	0.598000	0.076157
H12	H	0.548000	0.151400	0.591500	0.123818
H13	H	0.345000	0.936200	0.514600	0.101429
H14	H	0.271500	0.075100	0.499100	0.123818
H15	H	0.284200	0.247400	0.507100	0.076157
H16	H	0.113900	0.351500	0.610800	0.093022
H17	H	0.013500	0.307700	0.668400	0.126027
H18	H	0.247200	0.472400	0.785400	0.126027
H19	H	0.349600	0.503600	0.727900	0.093022
H20	H	0.746400	0.273600	0.847000	0.126027
H21	H	0.659600	0.200600	0.906800	0.093022
H22	H	0.891900	0.086500	0.952400	0.093022
H23	H	0.978600	0.155200	0.893100	0.126027
H24	H	0.347800	0.796800	0.930500	0.078605
H25	H	0.475600	0.053600	0.890800	0.078605
H26	H	0.398400	0.985200	0.805600	0.123818
H27	H	0.276400	0.720000	0.845000	0.123818
H28	H	0.314700	0.827900	0.735300	0.101429
H29	H	0.052800	0.238800	0.836300	0.066445
H30	H	0.964100	0.141100	0.804100	0.066445
H31	H	0.049800	0.205600	0.745800	0.066445
H32	H	0.944100	0.233300	0.736700	0.066445
H33	H	0.716400	0.811200	0.062700	0.093022
H34	H	0.825800	0.940000	0.130200	0.126027
H35	H	0.691800	0.803200	0.232200	0.126027
H36	H	0.579000	0.678400	0.164300	0.093022
H37	H	0.916100	0.053500	0.192100	0.111203
H38	H	0.398700	0.677900	0.003000	0.076157
H39	H	0.229300	0.667900	0.000000	0.123818
H40	H	0.013700	0.489300	0.906200	0.101429
H41	H	0.155700	0.449300	0.869900	0.123818
H42	H	0.327900	0.469900	0.875500	0.076157
H43	H	0.677500	0.447700	0.902000	0.076157
H44	H	0.848600	0.452000	0.908500	0.123818
H45	H	0.063800	0.655000	0.985400	0.101429
H46	H	0.924900	0.728500	0.000900	0.123818
H47	H	0.752600	0.715800	0.992900	0.076157
H48	H	0.648500	0.886100	0.889200	0.093022
H49	H	0.692300	0.986500	0.831600	0.126027
H50	H	0.527600	0.752800	0.714600	0.126027
H51	H	0.496400	0.650400	0.772100	0.093022
H52	H	0.726400	0.253600	0.653000	0.126027
H53	H	0.799400	0.340400	0.593200	0.093022
H54	H	0.913500	0.108100	0.547600	0.093022
H55	H	0.844800	0.021400	0.606900	0.126027
H56	H	0.203200	0.652200	0.569500	0.078605
H57	H	0.946400	0.524400	0.609200	0.078605
H58	H	0.014800	0.601600	0.694400	0.123818
H59	H	0.280000	0.723600	0.655000	0.123818
H60	H	0.172100	0.685300	0.764700	0.101429
H61	H	0.761200	0.947200	0.663700	0.066445
H62	H	0.858900	0.035900	0.695900	0.066445
H63	H	0.794400	0.950200	0.754200	0.066445
H64	H	0.766700	0.055900	0.763300	0.066445
H65	H	0.811200	0.716400	0.562700	0.093022
H66	H	0.940000	0.825800	0.630200	0.126027
H67	H	0.803200	0.691800	0.732200	0.126027
H68	H	0.678400	0.579000	0.664300	0.093022
H69	H	0.053500	0.916100	0.692100	0.111203
H70	H	0.677900	0.398700	0.503000	0.076157
H71	H	0.667900	0.229300	0.500000	0.123818
H72	H	0.489300	0.013700	0.406200	0.101429
H73	H	0.449300	0.155700	0.369900	0.123818
H74	H	0.469900	0.327900	0.375500	0.076157
H75	H	0.447700	0.677500	0.402000	0.076157
H76	H	0.452000	0.848600	0.408500	0.123818
H77	H	0.655000	0.063800	0.485400	0.101429
H78	H	0.728500	0.924900	0.500900	0.123818
H79	H	0.715800	0.752600	0.492900	0.076157
H80	H	0.886100	0.648500	0.389200	0.093022
H81	H	0.986500	0.692300	0.331600	0.126027
H82	H	0.752800	0.527600	0.214600	0.126027
H83	H	0.650400	0.496400	0.272100	0.093022
H84	H	0.253600	0.726400	0.153000	0.126027
H85	H	0.340400	0.799400	0.093200	0.093022
H86	H	0.108100	0.913500	0.047600	0.093022
H87	H	0.021400	0.844800	0.106900	0.126027
H88	H	0.652200	0.203200	0.069500	0.078605
H89	H	0.524400	0.946400	0.109200	0.078605
H90	H	0.601600	0.014800	0.194400	0.123818
H91	H	0.723600	0.280000	0.155000	0.123818
H92	H	0.685300	0.172100	0.264700	0.101429
H93	H	0.947200	0.761200	0.163700	0.066445
H94	H	0.035900	0.858900	0.195900	0.066445
H95	H	0.950200	0.794400	0.254200	0.066445
H96	H	0.055900	0.766700	0.263300	0.066445
H97	H	0.283600	0.188800	0.937300	0.093022
H98	H	0.174200	0.060000	0.869800	0.126027
H99	H	0.308200	0.196800	0.767800	0.126027
H100	H	0.421000	0.321600	0.835700	0.093022
H101	H	0.083900	0.946500	0.807900	0.111203
H102	H	0.601300	0.322100	0.997000	0.076157
H103	H	0.770700	0.332100	0.000000	0.123818
H104	H	0.986300	0.510700	0.093800	0.101429
H105	H	0.844300	0.550700	0.130100	0.123818
H106	H	0.672100	0.530100	0.124500	0.076157
H107	H	0.322500	0.552300	0.098000	0.076157
H108	H	0.151400	0.548000	0.091500	0.123818
H109	H	0.936200	0.345000	0.014600	0.101429
H110	H	0.075100	0.271500	0.999100	0.123818
H111	H	0.247400	0.284200	0.007100	0.076157
H112	H	0.351500	0.113900	0.110800	0.093022
H113	H	0.307700	0.013500	0.168400	0.126027
H114	H	0.472400	0.247200	0.285400	0.126027
H115	H	0.503600	0.349600	0.227900	0.093022
H116	H	0.273600	0.746400	0.347000	0.126027
H117	H	0.200600	0.659600	0.406800	0.093022
H118	H	0.086500	0.891900	0.452400	0.093022
H119	H	0.155200	0.978600	0.393100	0.126027
H120	H	0.796800	0.347800	0.430500	0.078605
H121	H	0.053600	0.475600	0.390800	0.078605
H122	H	0.985200	0.398400	0.305600	0.123818
H123	H	0.720000	0.276400	0.345000	0.123818
H124	H	0.827900	0.314700	0.235300	0.101429
H125	H	0.238800	0.052800	0.336300	0.066445
H126	H	0.141100	0.964100	0.304100	0.066445
H127	H	0.205600	0.049800	0.245800	0.066445
H128	H	0.233300	0.944100	0.236700	0.066445
C1	C	0.338600	0.228400	0.525400	0.168949
C2	C	0.330500	0.123900	0.520000	-0.204345
C3	C	0.493700	0.272100	0.577800	0.168949
C4	C	0.491300	0.168300	0.573900	-0.204345
C5	C	0.407700	0.091500	0.545100	0.121289
C6	C	0.355000	0.431800	0.436100	0.656646
C7	C	0.267900	0.363300	0.392800	-0.178623
C8	C	0.190300	0.289500	0.403100	0.010699
C9	C	0.113800	0.223200	0.362600	-0.244445
C10	C	0.117200	0.229600	0.313000	0.257090
C11	C	0.194500	0.303300	0.302100	-0.244445
C12	C	0.269200	0.370200	0.342800	0.010699
C13	C	0.963600	0.095200	0.276500	0.034583
C14	C	0.368700	0.650900	0.524200	0.168949
C15	C	0.374800	0.752800	0.525700	-0.204345
C16	C	0.443700	0.829700	0.565000	0.121289
C17	C	0.455800	0.941000	0.568600	-0.127519
C18	C	0.503200	0.796600	0.602600	-0.204345
C19	C	0.490800	0.692800	0.598520	0.168949
C20	C	0.398300	0.981700	0.540600	-0.127519
C21	C	0.313500	0.449500	0.625700	0.656646
C22	C	0.245600	0.431200	0.662670	-0.178623
C23	C	0.142200	0.373400	0.646400	0.010699
C24	C	0.081800	0.348000	0.680400	-0.259878
C25	C	0.121400	0.382000	0.732900	0.285883
C26	C	0.221200	0.444400	0.750100	-0.259878
C27	C	0.280800	0.464800	0.715500	0.010699
C28	C	0.870800	0.217600	0.864600	0.285883
C29	C	0.774800	0.234800	0.867800	-0.259878
C30	C	0.723700	0.191100	0.903800	0.011226
C31	C	0.766500	0.134100	0.934900	-0.175511
C32	C	0.861700	0.122900	0.930800	0.011226
C33	C	0.914100	0.164100	0.895500	-0.259878
C34	C	0.707600	0.080000	0.970600	0.649625
C35	C	0.359600	0.835200	0.905100	0.170485
C36	C	0.433100	0.985700	0.881780	0.170485
C37	C	0.388400	0.944400	0.830200	-0.204185
C38	C	0.328500	0.842900	0.814700	0.121289
C39	C	0.315600	0.789000	0.853600	-0.204185
C40	C	0.282800	0.796600	0.759300	-0.127519
C41	C	0.989000	0.216000	0.810000	0.060319
C42	C	0.009300	0.246700	0.761200	0.060319
C43	C	0.771600	0.661400	0.974600	0.168949
C44	C	0.876100	0.669500	0.980000	-0.204345
C45	C	0.727900	0.506300	0.922200	0.168949
C46	C	0.831700	0.508700	0.926100	-0.204345
C47	C	0.908500	0.592300	0.954900	0.121289
C48	C	0.568200	0.645000	0.063900	0.656646
C49	C	0.636700	0.732100	0.107200	-0.178623
C50	C	0.710500	0.809700	0.096900	0.010699
C51	C	0.776800	0.886200	0.137400	-0.244445
C52	C	0.770400	0.882800	0.187000	0.257090
C53	C	0.696700	0.805500	0.197900	-0.244445
C54	C	0.629800	0.730800	0.157200	0.010699
C55	C	0.904800	0.036400	0.223500	0.034583
C56	C	0.349100	0.631300	0.975800	0.168949
C57	C	0.247200	0.625200	0.974300	-0.204345
C58	C	0.170300	0.556300	0.935000	0.121289
C59	C	0.059000	0.544200	0.931400	-0.127519
C60	C	0.203400	0.496800	0.897400	-0.204345
C61	C	0.307200	0.509200	0.901480	0.168949
C62	C	0.018300	0.601700	0.959400	-0.127519
C63	C	0.550500	0.686500	0.874300	0.656646
C64	C	0.568800	0.754400	0.837330	-0.178623
C65	C	0.626600	0.857800	0.853600	0.010699
C66	C	0.652000	0.918200	0.819600	-0.259878
C67	C	0.618000	0.878600	0.767100	0.285883
C68	C	0.555600	0.778800	0.749900	-0.259878
C69	C	0.535200	0.719200	0.784500	0.010699
C70	C	0.782400	0.129200	0.635400	0.285883
C71	C	0.765200	0.225200	0.632200	-0.259878
C72	C	0.808900	0.276300	0.596200	0.011226
C73	C	0.865900	0.233500	0.565100	-0.175511
C74	C	0.877100	0.138300	0.569200	0.011226
C75	C	0.835900	0.085900	0.604500	-0.259878
C76	C	0.920000	0.292400	0.529400	0.649625
C77	C	0.164800	0.640400	0.594900	0.170485
C78	C	0.014300	0.566900	0.618220	0.170485
C79	C	0.055600	0.611600	0.669800	-0.204185
C80	C	0.157100	0.671500	0.685300	0.121289
C81	C	0.211000	0.684400	0.646400	-0.204185
C82	C	0.203400	0.717200	0.740700	-0.127519
C83	C	0.784000	0.011000	0.690000	0.060319
C84	C	0.753300	0.990700	0.738800	0.060319
C85	C	0.661400	0.771600	0.474600	0.168949
C86	C	0.669500	0.876100	0.480000	-0.204345
C87	C	0.506300	0.727900	0.422200	0.168949
C88	C	0.508700	0.831700	0.426100	-0.204345
C89	C	0.592300	0.908500	0.454900	0.121289
C90	C	0.645000	0.568200	0.563900	0.656646
C91	C	0.732100	0.636700	0.607200	-0.178623
C92	C	0.809700	0.710500	0.596900	0.010699
C93	C	0.886200	0.776800	0.637400	-0.244445
C94	C	0.882800	0.770400	0.687000	0.257090
C95	C	0.805500	0.696700	0.697900	-0.244445
C96	C	0.730800	0.629800	0.657200	0.010699
C97	C	0.036400	0.904800	0.723500	0.034583
C98	C	0.631300	0.349100	0.475800	0.168949
C99	C	0.625200	0.247200	0.474300	-0.204345
C100	C	0.556300	0.170300	0.435000	0.121289
C101	C	0.544200	0.059000	0.431400	-0.127519
C102	C	0.496800	0.203400	0.397400	-0.204345
C103	C	0.509200	0.307200	0.401480	0.168949
C104	C	0.601700	0.018300	0.459400	-0.127519
C105	C	0.686500	0.550500	0.374300	0.656646
C106	C	0.754400	0.568800	0.337330	-0.178623
C107	C	0.857800	0.626600	0.353600	0.010699
C108	C	0.918200	0.652000	0.319600	-0.259878
C109	C	0.878600	0.618000	0.267100	0.285883
C110	C	0.778800	0.555600	0.249900	-0.259878
C111	C	0.719200	0.535200	0.284500	0.010699
C112	C	0.129200	0.782400	0.135400	0.285883
C113	C	0.225200	0.765200	0.132200	-0.259878
C114	C	0.276300	0.808900	0.096200	0.011226
C115	C	0.233500	0.865900	0.065100	-0.175511
C116	C	0.138300	0.877100	0.069200	0.011226
C117	C	0.085900	0.835900	0.104500	-0.259878
C118	C	0.292400	0.920000	0.029400	0.649625
C119	C	0.640400	0.164800	0.094900	0.170485
C120	C	0.566900	0.014300	0.118220	0.170485
C121	C	0.611600	0.055600	0.169800	-0.204185
C122	C	0.671500	0.157100	0.185300	0.121289
C123	C	0.684400	0.211000	0.146400	-0.204185
C124	C	0.717200	0.203400	0.240700	-0.127519
C125	C	0.011000	0.784000	0.190000	0.060319
C126	C	0.990700	0.753300	0.238800	0.060319
C127	C	0.228400	0.338600	0.025400	0.168949
C128	C	0.123900	0.330500	0.020000	-0.204345
C129	C	0.272100	0.493700	0.077800	0.168949
C130	C	0.168300	0.491300	0.073900	-0.204345
C131	C	0.091500	0.407700	0.045100	0.121289
C132	C	0.431800	0.355000	0.936100	0.656646
C133	C	0.363300	0.267900	0.892800	-0.178623
C134	C	0.289500	0.190300	0.903100	0.010699
C135	C	0.223200	0.113800	0.862600	-0.244445
C136	C	0.229600	0.117200	0.813000	0.257090
C137	C	0.303300	0.194500	0.802100	-0.244445
C138	C	0.370200	0.269200	0.842800	0.010699
C139	C	0.095200	0.963600	0.776500	0.034583
C140	C	0.650900	0.368700	0.024200	0.168949
C141	C	0.752800	0.374800	0.025700	-0.204345
C142	C	0.829700	0.443700	0.065000	0.121289
C143	C	0.941000	0.455800	0.068600	-0.127519
C144	C	0.796600	0.503200	0.102600	-0.204345
C145	C	0.692800	0.490800	0.098520	0.168949
C146	C	0.981700	0.398300	0.040600	-0.127519
C147	C	0.449500	0.313500	0.125700	0.656646
C148	C	0.431200	0.245600	0.162670	-0.178623
C149	C	0.373400	0.142200	0.146400	0.010699
C150	C	0.348000	0.081800	0.180400	-0.259878
C151	C	0.382000	0.121400	0.232900	0.285883
C152	C	0.444400	0.221200	0.250100	-0.259878
C153	C	0.464800	0.280800	0.215500	0.010699
C154	C	0.217600	0.870800	0.364600	0.285883
C155	C	0.234800	0.774800	0.367800	-0.259878
C156	C	0.191100	0.723700	0.403800	0.011226
C157	C	0.134100	0.766500	0.434900	-0.175511
C158	C	0.122900	0.861700	0.430800	0.011226
C159	C	0.164100	0.914100	0.395500	-0.259878
C160	C	0.080000	0.707600	0.470600	0.649625
C161	C	0.835200	0.359600	0.405100	0.170485
C162	C	0.985700	0.433100	0.381780	0.170485
C163	C	0.944400	0.388400	0.330200	-0.204185
C164	C	0.842900	0.328500	0.314700	0.121289
C165	C	0.789000	0.315600	0.353600	-0.204185
C166	C	0.796600	0.282800	0.259300	-0.127519
C167	C	0.216000	0.989000	0.310000	0.060319
C168	C	0.246700	0.009300	0.261200	0.060319
N1	N	0.418250	0.302750	0.554460	-0.335842
N2	N	0.426790	0.619810	0.560040	-0.335842
N3	N	0.419340	0.934060	0.919620	-0.361059
N4	N	0.697250	0.581750	0.945540	-0.335842
N5	N	0.380190	0.573210	0.939960	-0.335842
N6	N	0.065940	0.580660	0.580380	-0.361059
N7	N	0.581750	0.697250	0.445540	-0.335842
N8	N	0.573210	0.380190	0.439960	-0.335842
N9	N	0.580660	0.065940	0.080380	-0.361059
N10	N	0.302750	0.418250	0.054460	-0.335842
N11	N	0.619810	0.426790	0.060040	-0.335842
N12	N	0.934060	0.419340	0.419620	-0.361059
O1	O	0.353120	0.415040	0.480740	-0.580353
O2	O	0.423270	0.499650	0.424560	-0.580353
O3	O	0.045400	0.167200	0.270640	-0.147388
O4	O	0.274060	0.430880	0.577580	-0.580353
O5	O	0.409370	0.482030	0.641490	-0.580353
O6	O	0.917700	0.258300	0.827200	-0.276827
O7	O	0.066500	0.358700	0.770930	-0.276827
O8	O	0.747300	0.025100	0.994590	-0.621683
O9	O	0.619230	0.093570	0.972230	-0.611208
O10	O	0.584960	0.646880	0.019260	-0.580353
O11	O	0.500350	0.576730	0.075440	-0.580353
O12	O	0.832800	0.954600	0.229360	-0.147388
O13	O	0.569120	0.725940	0.922420	-0.580353
O14	O	0.517970	0.590630	0.858510	-0.580353
O15	O	0.741700	0.082300	0.672800	-0.276827
O16	O	0.641300	0.933500	0.729070	-0.276827
O17	O	0.974900	0.252700	0.505410	-0.621683
O18	O	0.906430	0.380770	0.527770	-0.611208
O19	O	0.646880	0.584960	0.519260	-0.580353
O20	O	0.576730	0.500350	0.575440	-0.580353
O21	O	0.954600	0.832800	0.729360	-0.147388
O22	O	0.725940	0.569120	0.422420	-0.580353
O23	O	0.590630	0.517970	0.358510	-0.580353
O24	O	0.082300	0.741700	0.172800	-0.276827
O25	O	0.933500	0.641300	0.229070	-0.276827
O26	O	0.252700	0.974900	0.005410	-0.621683
O27	O	0.380770	0.906430	0.027770	-0.611208
O28	O	0.415040	0.353120	0.980740	-0.580353
O29	O	0.499650	0.423270	0.924560	-0.580353
O30	O	0.167200	0.045400	0.770640	-0.147388
O31	O	0.430880	0.274060	0.077580	-0.580353
O32	O	0.482030	0.409370	0.141490	-0.580353
O33	O	0.258300	0.917700	0.327200	-0.276827
O34	O	0.358700	0.066500	0.270930	-0.276827
O35	O	0.025100	0.747300	0.494590	-0.621683
O36	O	0.093570	0.619230	0.472230	-0.611208
