data_IRMOF-7_PM
_symmetry_space_group_name_H-M	'P1'
_cell_length_a	12.914400
_cell_length_b	12.914400
_cell_length_c	12.914400
_cell_angle_alpha	90.000000
_cell_angle_beta	90.000000
_cell_angle_gamma	90.000000
_symmetry_Int_Tables_number 1

loop_
_symmetry_equiv_pos_as_xyz
'x,y,z'

loop_
_atom_site_label
_atom_site_type_symbol
_atom_site_fract_x
_atom_site_fract_y
_atom_site_fract_z
_atom_site_charge
Zn1	Zn	0.586620	0.586620	0.586620	1.112134
Zn2	Zn	0.413380	0.413380	0.586620	1.112134
Zn3	Zn	0.413380	0.586620	0.413380	1.112134
Zn4	Zn	0.586620	0.413380	0.413380	1.112134
H1	H	0.824140	0.684920	0.500000	0.104762
H2	H	0.908420	0.844800	0.500000	0.099962
H3	H	0.175860	0.684920	0.500000	0.104762
H4	H	0.091580	0.844800	0.500000	0.099962
H5	H	0.500000	0.175860	0.315080	0.104762
H6	H	0.500000	0.091580	0.155200	0.099962
H7	H	0.500000	0.824140	0.315080	0.104762
H8	H	0.500000	0.908420	0.155200	0.099962
H9	H	0.684920	0.500000	0.824140	0.104762
H10	H	0.844800	0.500000	0.908420	0.099962
H11	H	0.684920	0.500000	0.175860	0.104762
H12	H	0.844800	0.500000	0.091580	0.099962
H13	H	0.500000	0.085040	0.658080	0.100648
H14	H	0.500000	0.914960	0.658080	0.100648
H15	H	0.341920	0.500000	0.914960	0.100648
H16	H	0.341920	0.500000	0.085040	0.100648
H17	H	0.914960	0.341920	0.500000	0.100648
H18	H	0.085040	0.341920	0.500000	0.100648
C1	C	0.785880	0.500000	0.500000	0.706587
C2	C	0.899060	0.500000	0.500000	-0.138752
C3	C	0.952420	0.594780	0.500000	0.053791
C4	C	0.896120	0.687360	0.500000	-0.120921
C5	C	0.945840	0.783280	0.500000	-0.074734
C6	C	0.214120	0.500000	0.500000	0.706587
C7	C	0.100940	0.500000	0.500000	-0.138752
C8	C	0.047580	0.405220	0.500000	-0.071284
C9	C	0.047580	0.594780	0.500000	0.053791
C10	C	0.103880	0.687360	0.500000	-0.120921
C11	C	0.054160	0.783280	0.500000	-0.074734
C12	C	0.952420	0.405220	0.500000	-0.071284
C13	C	0.500000	0.785880	0.500000	0.706587
C14	C	0.500000	0.899060	0.500000	-0.138752
C15	C	0.500000	0.952420	0.594780	-0.071284
C16	C	0.500000	0.214120	0.500000	0.706587
C17	C	0.500000	0.100940	0.500000	-0.138752
C18	C	0.500000	0.047580	0.405220	0.053791
C19	C	0.500000	0.103880	0.312640	-0.120921
C20	C	0.500000	0.054160	0.216720	-0.074734
C21	C	0.500000	0.047580	0.594780	-0.071284
C22	C	0.500000	0.952420	0.405220	0.053791
C23	C	0.500000	0.896120	0.312640	-0.120921
C24	C	0.500000	0.945840	0.216720	-0.074734
C25	C	0.500000	0.500000	0.785880	0.706587
C26	C	0.500000	0.500000	0.899060	-0.138752
C27	C	0.594780	0.500000	0.952420	0.053791
C28	C	0.687360	0.500000	0.896120	-0.120921
C29	C	0.783280	0.500000	0.945840	-0.074734
C30	C	0.500000	0.500000	0.214120	0.706587
C31	C	0.500000	0.500000	0.100940	-0.138752
C32	C	0.405220	0.500000	0.047580	-0.071284
C33	C	0.594780	0.500000	0.047580	0.053791
C34	C	0.687360	0.500000	0.103880	-0.120921
C35	C	0.783280	0.500000	0.054160	-0.074734
C36	C	0.405220	0.500000	0.952420	-0.071284
O1	O	0.500000	0.500000	0.500000	-1.154090
O2	O	0.736780	0.559040	0.559040	-0.604567
O3	O	0.263220	0.440960	0.559040	-0.604567
O4	O	0.263220	0.559040	0.440960	-0.604567
O5	O	0.736780	0.440960	0.440960	-0.604567
O6	O	0.559040	0.736780	0.559040	-0.604567
O7	O	0.559040	0.263220	0.440960	-0.604567
O8	O	0.440960	0.263220	0.559040	-0.604567
O9	O	0.440960	0.736780	0.440960	-0.604567
O10	O	0.559040	0.559040	0.736780	-0.604567
O11	O	0.440960	0.559040	0.263220	-0.604567
O12	O	0.559040	0.440960	0.263220	-0.604567
O13	O	0.440960	0.440960	0.736780	-0.604567
