data_IYIGEC_clean_PM
_symmetry_space_group_name_H-M	'P1'
_cell_length_a	6.733800
_cell_length_b	16.690300
_cell_length_c	16.690300
_cell_angle_alpha	87.667800
_cell_angle_beta	78.362200
_cell_angle_gamma	78.362000
_symmetry_Int_Tables_number 1

loop_
_symmetry_equiv_pos_as_xyz
'x,y,z'

loop_
_atom_site_label
_atom_site_type_symbol
_atom_site_fract_x
_atom_site_fract_y
_atom_site_fract_z
_atom_site_charge
Ag1	Ag	0.916320	0.890960	0.382560	0.561705
Ag2	Ag	0.189840	0.609040	0.117440	0.561705
Ag3	Ag	0.298880	0.117440	0.890960	0.561705
Ag4	Ag	0.307280	0.382560	0.609040	0.561705
Ag5	Ag	0.083680	0.109040	0.617440	0.561705
Ag6	Ag	0.810160	0.390960	0.882560	0.561705
Ag7	Ag	0.701120	0.882560	0.109040	0.561705
Ag8	Ag	0.692720	0.617440	0.390960	0.561705
H1	H	0.869600	0.762300	0.600900	0.137257
H2	H	0.664300	0.824900	0.622300	0.137257
H3	H	0.809200	0.891600	0.625400	0.055663
H4	H	0.009100	0.832700	0.585700	0.055663
H5	H	0.653000	0.999100	0.539700	0.063289
H6	H	0.803300	0.016400	0.594800	0.063289
H7	H	0.152500	0.946100	0.573100	0.063289
H8	H	0.236800	0.880700	0.503100	0.063289
H9	H	0.236800	0.721500	0.390300	0.062397
H10	H	0.369600	0.789100	0.387700	0.062397
H11	H	0.042000	0.714000	0.290000	0.062397
H12	H	0.232800	0.737700	0.899100	0.137257
H13	H	0.111500	0.675100	0.877700	0.137257
H14	H	0.326200	0.608400	0.874600	0.055663
H15	H	0.427500	0.667300	0.914300	0.055663
H16	H	0.191800	0.500900	0.960300	0.063289
H17	H	0.414500	0.483600	0.905200	0.063289
H18	H	0.671700	0.553900	0.926900	0.063289
H19	H	0.620600	0.619300	0.996900	0.063289
H20	H	0.348600	0.778500	0.109700	0.062397
H21	H	0.546400	0.710900	0.112300	0.062397
H22	H	0.046000	0.786000	0.210000	0.062397
H23	H	0.470500	0.899100	0.762300	0.137257
H24	H	0.286600	0.877700	0.824900	0.137257
H25	H	0.434600	0.874600	0.891600	0.055663
H26	H	0.594800	0.914300	0.832700	0.055663
H27	H	0.192700	0.960300	0.999100	0.063289
H28	H	0.398100	0.905200	0.016400	0.063289
H29	H	0.725600	0.926900	0.946100	0.063289
H30	H	0.739900	0.996900	0.880700	0.063289
H31	H	0.627100	0.109700	0.721500	0.062397
H32	H	0.757300	0.112300	0.789100	0.062397
H33	H	0.332000	0.210000	0.714000	0.062397
H34	H	0.131900	0.600900	0.737700	0.137257
H35	H	0.989200	0.622300	0.675100	0.137257
H36	H	0.200800	0.625400	0.608400	0.055663
H37	H	0.341800	0.585700	0.667300	0.055663
H38	H	0.152100	0.539700	0.500900	0.063289
H39	H	0.319700	0.594800	0.483600	0.063289
H40	H	0.598600	0.573100	0.553900	0.063289
H41	H	0.617500	0.503100	0.619300	0.063289
H42	H	0.458300	0.390300	0.778500	0.062397
H43	H	0.658700	0.387700	0.710900	0.062397
H44	H	0.256000	0.290000	0.786000	0.062397
H45	H	0.130400	0.237700	0.399100	0.137257
H46	H	0.335700	0.175100	0.377700	0.137257
H47	H	0.190800	0.108400	0.374600	0.055663
H48	H	0.990900	0.167300	0.414300	0.055663
H49	H	0.347000	0.000900	0.460300	0.063289
H50	H	0.196700	0.983600	0.405200	0.063289
H51	H	0.847500	0.053900	0.426900	0.063289
H52	H	0.763200	0.119300	0.496900	0.063289
H53	H	0.763200	0.278500	0.609700	0.062397
H54	H	0.630400	0.210900	0.612300	0.062397
H55	H	0.958000	0.286000	0.710000	0.062397
H56	H	0.767200	0.262300	0.100900	0.137257
H57	H	0.888500	0.324900	0.122300	0.137257
H58	H	0.673800	0.391600	0.125400	0.055663
H59	H	0.572500	0.332700	0.085700	0.055663
H60	H	0.808200	0.499100	0.039700	0.063289
H61	H	0.585500	0.516400	0.094800	0.063289
H62	H	0.328300	0.446100	0.073100	0.063289
H63	H	0.379400	0.380700	0.003100	0.063289
H64	H	0.651400	0.221500	0.890300	0.062397
H65	H	0.453600	0.289100	0.887700	0.062397
H66	H	0.954000	0.214000	0.790000	0.062397
H67	H	0.529500	0.100900	0.237700	0.137257
H68	H	0.713400	0.122300	0.175100	0.137257
H69	H	0.565400	0.125400	0.108400	0.055663
H70	H	0.405200	0.085700	0.167300	0.055663
H71	H	0.807300	0.039700	0.000900	0.063289
H72	H	0.601900	0.094800	0.983600	0.063289
H73	H	0.274400	0.073100	0.053900	0.063289
H74	H	0.260100	0.003100	0.119300	0.063289
H75	H	0.372900	0.890300	0.278500	0.062397
H76	H	0.242700	0.887700	0.210900	0.062397
H77	H	0.668000	0.790000	0.286000	0.062397
H78	H	0.868100	0.399100	0.262300	0.137257
H79	H	0.010800	0.377700	0.324900	0.137257
H80	H	0.799200	0.374600	0.391600	0.055663
H81	H	0.658200	0.414300	0.332700	0.055663
H82	H	0.847900	0.460300	0.499100	0.063289
H83	H	0.680300	0.405200	0.516400	0.063289
H84	H	0.401400	0.426900	0.446100	0.063289
H85	H	0.382500	0.496900	0.380700	0.063289
H86	H	0.541700	0.609700	0.221500	0.062397
H87	H	0.341300	0.612300	0.289100	0.062397
H88	H	0.744000	0.710000	0.214000	0.062397
C1	C	0.783500	0.808200	0.578800	-0.429177
C2	C	0.875700	0.860800	0.575800	0.032646
C3	C	0.795100	0.002400	0.539800	-0.033098
C4	C	0.142600	0.932500	0.518300	-0.033098
C5	C	0.321400	0.753900	0.354100	0.087308
C6	C	0.170500	0.691800	0.921200	-0.429177
C7	C	0.312300	0.639200	0.924200	0.032646
C8	C	0.337300	0.497600	0.960200	-0.033098
C9	C	0.593400	0.567500	0.981700	-0.033098
C10	C	0.429400	0.746100	0.145900	0.087308
C11	C	0.362300	0.921200	0.808200	-0.429177
C12	C	0.451500	0.924200	0.860800	0.032646
C13	C	0.334900	0.960200	0.002400	-0.033098
C14	C	0.660900	0.981700	0.932500	-0.033098
C15	C	0.675500	0.145900	0.753900	0.087308
C16	C	0.091700	0.578800	0.691800	-0.429177
C17	C	0.236500	0.575800	0.639200	0.032646
C18	C	0.297500	0.539800	0.497600	-0.033098
C19	C	0.575100	0.518300	0.567500	-0.033098
C20	C	0.575300	0.354100	0.746100	0.087308
C21	C	0.216500	0.191800	0.421200	-0.429177
C22	C	0.124300	0.139200	0.424200	0.032646
C23	C	0.204900	0.997600	0.460200	-0.033098
C24	C	0.857400	0.067500	0.481700	-0.033098
C25	C	0.678600	0.246100	0.645900	0.087308
C26	C	0.829500	0.308200	0.078800	-0.429177
C27	C	0.687700	0.360800	0.075800	0.032646
C28	C	0.662700	0.502400	0.039800	-0.033098
C29	C	0.406600	0.432500	0.018300	-0.033098
C30	C	0.570600	0.253900	0.854100	0.087308
C31	C	0.637700	0.078800	0.191800	-0.429177
C32	C	0.548500	0.075800	0.139200	0.032646
C33	C	0.665100	0.039800	0.997600	-0.033098
C34	C	0.339100	0.018300	0.067500	-0.033098
C35	C	0.324500	0.854100	0.246100	0.087308
C36	C	0.908300	0.421200	0.308200	-0.429177
C37	C	0.763500	0.424200	0.360800	0.032646
C38	C	0.702500	0.460200	0.502400	-0.033098
C39	C	0.424900	0.481700	0.432500	-0.033098
C40	C	0.424700	0.645900	0.253900	0.087308
C41	C	0.122400	0.750000	0.250000	0.087308
C42	C	0.372400	0.250000	0.750000	0.087308
C43	C	0.877600	0.250000	0.750000	0.087308
C44	C	0.627600	0.750000	0.250000	0.087308
S1	S	0.683690	0.762720	0.506100	1.413578
S2	S	0.952510	0.737280	0.993900	1.413578
S3	S	0.189790	0.993900	0.762720	1.413578
S4	S	0.946410	0.506100	0.737280	1.413578
S5	S	0.316310	0.237280	0.493900	1.413578
S6	S	0.047490	0.262720	0.006100	1.413578
S7	S	0.810210	0.006100	0.237280	1.413578
S8	S	0.053590	0.493900	0.262720	1.413578
N1	N	0.928000	0.924300	0.517100	-0.211106
N2	N	0.193500	0.805400	0.301000	-0.272949
N3	N	0.369400	0.575700	0.982900	-0.211106
N4	N	0.299900	0.694600	0.199000	-0.272949
N5	N	0.445100	0.982900	0.924300	-0.211106
N6	N	0.494500	0.199000	0.805400	-0.272949
N7	N	0.352300	0.517100	0.575700	-0.211106
N8	N	0.498900	0.301000	0.694600	-0.272949
N9	N	0.072000	0.075700	0.482900	-0.211106
N10	N	0.806500	0.194600	0.699000	-0.272949
N11	N	0.630600	0.424300	0.017100	-0.211106
N12	N	0.700100	0.305400	0.801000	-0.272949
N13	N	0.554900	0.017100	0.075700	-0.211106
N14	N	0.505500	0.801000	0.194600	-0.272949
N15	N	0.647700	0.482900	0.424300	-0.211106
N16	N	0.501100	0.699000	0.305400	-0.272949
O1	O	0.647100	0.822700	0.441100	-0.631506
O2	O	0.492600	0.742000	0.545000	-0.722639
O3	O	0.840400	0.691800	0.479000	-0.631506
O4	O	0.910900	0.677300	0.058900	-0.631506
O5	O	0.779600	0.758000	0.955000	-0.722639
O6	O	0.011200	0.808200	0.021000	-0.631506
O7	O	0.088200	0.058900	0.822700	-0.631506
O8	O	0.037600	0.955000	0.742000	-0.722639
O9	O	0.319400	0.021000	0.691800	-0.631506
O10	O	0.969800	0.441100	0.677300	-0.631506
O11	O	0.734600	0.545000	0.758000	-0.722639
O12	O	0.032200	0.479000	0.808200	-0.631506
O13	O	0.352900	0.177300	0.558900	-0.631506
O14	O	0.507400	0.258000	0.455000	-0.722639
O15	O	0.159600	0.308200	0.521000	-0.631506
O16	O	0.089100	0.322700	0.941100	-0.631506
O17	O	0.220400	0.242000	0.045000	-0.722639
O18	O	0.988800	0.191800	0.979000	-0.631506
O19	O	0.911800	0.941100	0.177300	-0.631506
O20	O	0.962400	0.045000	0.258000	-0.722639
O21	O	0.680600	0.979000	0.308200	-0.631506
O22	O	0.030200	0.558900	0.322700	-0.631506
O23	O	0.265400	0.455000	0.242000	-0.722639
O24	O	0.967800	0.521000	0.191800	-0.631506
