data_IYUREA_clean_PM
_symmetry_space_group_name_H-M	'P1'
_cell_length_a	9.218900
_cell_length_b	9.218900
_cell_length_c	10.517000
_cell_angle_alpha	100.003002
_cell_angle_beta	100.003003
_cell_angle_gamma	91.696397
_symmetry_Int_Tables_number 1

loop_
_symmetry_equiv_pos_as_xyz
'x,y,z'

loop_
_atom_site_label
_atom_site_type_symbol
_atom_site_fract_x
_atom_site_fract_y
_atom_site_fract_z
_atom_site_charge
Cu1	Cu	0.000000	0.000000	0.000000	0.954248
Cu2	Cu	0.000000	0.000000	0.500000	0.954248
Ni1	Ni	0.146930	0.853070	0.250000	0.817215
Ni2	Ni	0.853070	0.146930	0.750000	0.817215
H1	H	0.588900	0.050500	0.110000	0.128734
H2	H	0.350300	0.024300	0.138800	0.079223
H3	H	0.450400	0.727600	0.355400	0.079223
H4	H	0.691900	0.743900	0.331500	0.128734
H5	H	0.949500	0.411100	0.390000	0.128734
H6	H	0.975700	0.649700	0.361200	0.079223
H7	H	0.272400	0.549600	0.144600	0.079223
H8	H	0.256100	0.308100	0.168500	0.128734
H9	H	0.411100	0.949500	0.890000	0.128734
H10	H	0.649700	0.975700	0.861200	0.079223
H11	H	0.549600	0.272400	0.644600	0.079223
H12	H	0.308100	0.256100	0.668500	0.128734
H13	H	0.050500	0.588900	0.610000	0.128734
H14	H	0.024300	0.350300	0.638800	0.079223
H15	H	0.727600	0.450400	0.855400	0.079223
H16	H	0.743900	0.691900	0.831500	0.128734
C1	C	0.562700	0.981500	0.158200	-0.145053
C2	C	0.419500	0.965500	0.176500	0.145552
C3	C	0.478000	0.791600	0.303200	0.145552
C4	C	0.667300	0.894900	0.211800	-0.004919
C5	C	0.822200	0.904400	0.183800	0.648963
C6	C	0.623800	0.800400	0.289400	-0.145053
C7	C	0.018500	0.437300	0.341800	-0.145053
C8	C	0.034500	0.580500	0.323500	0.145552
C9	C	0.208400	0.522000	0.196800	0.145552
C10	C	0.105100	0.332700	0.288200	-0.004919
C11	C	0.095600	0.177800	0.316200	0.648963
C12	C	0.199600	0.376200	0.210600	-0.145053
C13	C	0.437300	0.018500	0.841800	-0.145053
C14	C	0.580500	0.034500	0.823500	0.145552
C15	C	0.522000	0.208400	0.696800	0.145552
C16	C	0.332700	0.105100	0.788200	-0.004919
C17	C	0.177800	0.095600	0.816200	0.648963
C18	C	0.376200	0.199600	0.710600	-0.145053
C19	C	0.981500	0.562700	0.658200	-0.145053
C20	C	0.965500	0.419500	0.676500	0.145552
C21	C	0.791600	0.478000	0.803200	0.145552
C22	C	0.894900	0.667300	0.711800	-0.004919
C23	C	0.904400	0.822200	0.683800	0.648963
C24	C	0.800400	0.623800	0.789400	-0.145053
N1	N	0.374100	0.869300	0.246100	-0.270419
N2	N	0.091900	0.820100	0.044700	-0.662522
N3	N	0.171400	0.754000	0.978200	0.541047
N4	N	0.247500	0.690900	0.917400	-0.452287
N5	N	0.130700	0.625900	0.253900	-0.270419
N6	N	0.179900	0.908100	0.455300	-0.662522
N7	N	0.246000	0.828600	0.521800	0.541047
N8	N	0.309100	0.752500	0.582600	-0.452287
N9	N	0.625900	0.130700	0.753900	-0.270419
N10	N	0.908100	0.179900	0.955300	-0.662522
N11	N	0.828600	0.246000	0.021800	0.541047
N12	N	0.752500	0.309100	0.082600	-0.452287
N13	N	0.869300	0.374100	0.746100	-0.270419
N14	N	0.820100	0.091900	0.544700	-0.662522
N15	N	0.754000	0.171400	0.478200	0.541047
N16	N	0.690900	0.247500	0.417400	-0.452287
O1	O	0.832880	0.957920	0.083300	-0.551596
O2	O	0.922150	0.860150	0.261100	-0.550911
O3	O	0.042080	0.167120	0.416700	-0.551596
O4	O	0.139850	0.077850	0.238900	-0.550911
O5	O	0.167120	0.042080	0.916700	-0.551596
O6	O	0.077850	0.139850	0.738900	-0.550911
O7	O	0.957920	0.832880	0.583300	-0.551596
O8	O	0.860150	0.922150	0.761100	-0.550911
