data_JEJWOL_clean_PM
_symmetry_space_group_name_H-M	'P1'
_cell_length_a	15.156000
_cell_length_b	15.657000
_cell_length_c	26.967000
_cell_angle_alpha	81.603000
_cell_angle_beta	78.041999
_cell_angle_gamma	73.529001
_symmetry_Int_Tables_number 1

loop_
_symmetry_equiv_pos_as_xyz
'x,y,z'

loop_
_atom_site_label
_atom_site_type_symbol
_atom_site_fract_x
_atom_site_fract_y
_atom_site_fract_z
_atom_site_charge
Nd1	Nd	0.866090	0.227970	0.792430	2.252838
Nd2	Nd	0.954990	0.855880	0.325520	2.238248
Nd3	Nd	0.133910	0.772030	0.207570	2.252838
Nd4	Nd	0.045010	0.144120	0.674480	2.238248
H1	H	0.834500	0.558400	0.768700	0.094793
H2	H	0.827000	0.693200	0.796400	0.119810
H3	H	0.907600	0.569000	0.928300	0.119810
H4	H	0.916400	0.434300	0.899200	0.094793
H5	H	0.947600	0.735600	0.157000	0.094793
H6	H	0.872200	0.709800	0.100200	0.119810
H7	H	0.630900	0.870000	0.165300	0.119810
H8	H	0.709700	0.899100	0.222500	0.094793
H9	H	0.770300	0.633200	0.370000	0.095254
H10	H	0.693000	0.534100	0.419700	0.119810
H11	H	0.787000	0.577500	0.541300	0.119810
H12	H	0.862900	0.675300	0.490300	0.095254
H13	H	0.472700	0.651700	0.172000	0.095254
H14	H	0.390200	0.888100	0.096100	0.095254
H15	H	0.835200	0.014000	0.825100	0.095254
H16	H	0.789600	0.901300	0.879600	0.119810
H17	H	0.544000	0.630000	0.499900	0.115609
H18	H	0.603500	0.363800	0.512100	0.115609
H19	H	0.850500	0.398000	0.527300	0.119810
H20	H	0.906300	0.319400	0.598900	0.094793
H21	H	0.646200	0.360000	0.673900	0.094793
H22	H	0.591700	0.441900	0.603700	0.119810
H23	H	0.836600	0.837000	0.028100	0.115609
H24	H	0.900200	0.811400	0.946700	0.115609
H25	H	0.715900	0.681000	0.938700	0.115609
H26	H	0.650300	0.702600	0.020000	0.115609
H27	H	0.627500	0.654700	0.143400	0.119810
H28	H	0.541800	0.891600	0.065700	0.119810
H29	H	0.993100	0.718200	0.805100	0.119810
H30	H	0.038100	0.831500	0.747100	0.095254
H31	H	0.165500	0.441600	0.231300	0.094793
H32	H	0.173000	0.306800	0.203600	0.119810
H33	H	0.092400	0.431000	0.071700	0.119810
H34	H	0.083600	0.565700	0.100800	0.094793
H35	H	0.052400	0.264400	0.843000	0.094793
H36	H	0.127800	0.290200	0.899800	0.119810
H37	H	0.369100	0.130000	0.834700	0.119810
H38	H	0.290300	0.100900	0.777500	0.094793
H39	H	0.229700	0.366800	0.630000	0.095254
H40	H	0.307000	0.465900	0.580300	0.119810
H41	H	0.213000	0.422500	0.458700	0.119810
H42	H	0.137100	0.324700	0.509700	0.095254
H43	H	0.527300	0.348300	0.828000	0.095254
H44	H	0.609800	0.111900	0.903900	0.095254
H45	H	0.164800	0.986000	0.174900	0.095254
H46	H	0.210400	0.098700	0.120400	0.119810
H47	H	0.456000	0.370000	0.500100	0.115609
H48	H	0.396500	0.636200	0.487900	0.115609
H49	H	0.149500	0.602000	0.472700	0.119810
H50	H	0.093700	0.680600	0.401100	0.094793
H51	H	0.353800	0.640000	0.326100	0.094793
H52	H	0.408300	0.558100	0.396300	0.119810
H53	H	0.163400	0.163000	0.971900	0.115609
H54	H	0.099800	0.188600	0.053300	0.115609
H55	H	0.284100	0.319000	0.061300	0.115609
H56	H	0.349700	0.297400	0.980000	0.115609
H57	H	0.372500	0.345300	0.856600	0.119810
H58	H	0.458200	0.108400	0.934300	0.119810
H59	H	0.006900	0.281800	0.194900	0.119810
H60	H	0.961900	0.168500	0.252900	0.095254
C1	C	0.871700	0.393800	0.819500	0.750435
C2	C	0.873100	0.481100	0.834200	-0.174787
C3	C	0.848000	0.560800	0.800500	0.000812
C4	C	0.844700	0.640800	0.817300	-0.192974
C5	C	0.866400	0.646500	0.863600	0.148427
C6	C	0.893300	0.567100	0.896700	-0.192974
C7	C	0.896700	0.487000	0.879000	0.000812
C8	C	0.882900	0.837200	0.236200	0.749971
C9	C	0.835600	0.818600	0.196800	-0.178692
C10	C	0.884200	0.762900	0.158500	0.003149
C11	C	0.839700	0.749200	0.124500	-0.192974
C12	C	0.743000	0.792800	0.123700	0.148427
C13	C	0.695000	0.845000	0.162700	-0.192974
C14	C	0.741600	0.860300	0.197800	0.003149
C15	C	0.876600	0.723700	0.390500	0.620514
C16	C	0.826400	0.661000	0.423600	-0.136424
C17	C	0.774400	0.620900	0.404400	-0.005106
C18	C	0.726800	0.562000	0.434200	-0.189610
C19	C	0.730500	0.545200	0.486700	0.148427
C20	C	0.783400	0.588300	0.506800	-0.189610
C21	C	0.829600	0.646100	0.476300	-0.005106
C22	C	0.316900	0.768900	0.155700	0.614447
C23	C	0.486800	0.700500	0.150900	-0.006365
C24	C	0.416500	0.770000	0.136400	-0.142783
C25	C	0.438300	0.840600	0.105600	-0.006365
C26	C	0.972100	0.008000	0.740800	0.734185
C27	C	0.940500	0.935100	0.781700	-0.178541
C28	C	0.867100	0.954700	0.820500	0.002742
C29	C	0.839800	0.887100	0.853100	-0.189610
C30	C	0.590900	0.494200	0.508800	0.125694
C31	C	0.527000	0.577300	0.500300	-0.133766
C32	C	0.561800	0.419500	0.507500	-0.133766
C33	C	0.714200	0.436500	0.558900	0.148427
C34	C	0.808800	0.393400	0.557500	-0.192974
C35	C	0.842500	0.343800	0.600100	0.003149
C36	C	0.688500	0.368600	0.644500	0.003149
C37	C	0.655800	0.419100	0.602300	-0.192974
C38	C	0.819000	0.282300	0.688200	0.747255
C39	C	0.781000	0.331300	0.643800	-0.179424
C40	C	0.738500	0.767000	0.034600	0.125694
C41	C	0.813100	0.803700	0.010700	-0.133766
C42	C	0.849300	0.789100	0.962000	-0.133766
C43	C	0.817200	0.744300	0.933200	0.125694
C44	C	0.740600	0.711700	0.957000	-0.133766
C45	C	0.702200	0.723700	0.005500	-0.133766
C46	C	0.579500	0.702600	0.134200	-0.189610
C47	C	0.600400	0.777400	0.103300	0.148427
C48	C	0.529100	0.843800	0.088100	-0.189610
C49	C	0.884200	0.801400	0.847200	0.148427
C50	C	0.961100	0.777800	0.808200	-0.189610
C51	C	0.988900	0.845300	0.774100	0.002742
C52	C	0.128300	0.606200	0.180500	0.750435
C53	C	0.126900	0.518900	0.165800	-0.174787
C54	C	0.152000	0.439200	0.199500	0.000812
C55	C	0.155300	0.359200	0.182700	-0.192974
C56	C	0.133600	0.353500	0.136400	0.148427
C57	C	0.106700	0.432900	0.103300	-0.192974
C58	C	0.103300	0.513000	0.121000	0.000812
C59	C	0.117100	0.162800	0.763800	0.749971
C60	C	0.164400	0.181400	0.803200	-0.178692
C61	C	0.115800	0.237100	0.841500	0.003149
C62	C	0.160300	0.250800	0.875500	-0.192974
C63	C	0.257000	0.207200	0.876300	0.148427
C64	C	0.305000	0.155000	0.837300	-0.192974
C65	C	0.258400	0.139700	0.802200	0.003149
C66	C	0.123400	0.276300	0.609500	0.620514
C67	C	0.173600	0.339000	0.576400	-0.136424
C68	C	0.225600	0.379100	0.595600	-0.005106
C69	C	0.273200	0.438000	0.565800	-0.189610
C70	C	0.269500	0.454800	0.513300	0.148427
C71	C	0.216600	0.411700	0.493200	-0.189610
C72	C	0.170400	0.353900	0.523700	-0.005106
C73	C	0.683100	0.231100	0.844300	0.614447
C74	C	0.513200	0.299500	0.849100	-0.006365
C75	C	0.583500	0.230000	0.863600	-0.142783
C76	C	0.561700	0.159400	0.894400	-0.006365
C77	C	0.027900	0.992000	0.259200	0.734185
C78	C	0.059500	0.064900	0.218300	-0.178541
C79	C	0.132900	0.045300	0.179500	0.002742
C80	C	0.160200	0.112900	0.146900	-0.189610
C81	C	0.409100	0.505800	0.491200	0.125694
C82	C	0.473000	0.422700	0.499700	-0.133766
C83	C	0.438200	0.580500	0.492500	-0.133766
C84	C	0.285800	0.563500	0.441100	0.148427
C85	C	0.191200	0.606600	0.442500	-0.192974
C86	C	0.157500	0.656200	0.399900	0.003149
C87	C	0.311500	0.631400	0.355500	0.003149
C88	C	0.344200	0.580900	0.397700	-0.192974
C89	C	0.181000	0.717700	0.311800	0.747255
C90	C	0.219000	0.668700	0.356200	-0.179424
C91	C	0.261500	0.233000	0.965400	0.125694
C92	C	0.186900	0.196300	0.989300	-0.133766
C93	C	0.150700	0.210900	0.038000	-0.133766
C94	C	0.182800	0.255700	0.066800	0.125694
C95	C	0.259400	0.288300	0.043000	-0.133766
C96	C	0.297800	0.276300	0.994500	-0.133766
C97	C	0.420500	0.297400	0.865800	-0.189610
C98	C	0.399600	0.222600	0.896700	0.148427
C99	C	0.470900	0.156200	0.911900	-0.189610
C100	C	0.115800	0.198600	0.152800	0.148427
C101	C	0.038900	0.222200	0.191800	-0.189610
C102	C	0.011100	0.154700	0.225900	0.002742
N1	N	0.861000	0.729700	0.881800	-0.105281
N2	N	0.697000	0.779000	0.087200	-0.105281
N3	N	0.677900	0.488400	0.517300	-0.105281
N4	N	0.139000	0.270300	0.118200	-0.105281
N5	N	0.303000	0.221000	0.912800	-0.105281
N6	N	0.322100	0.511600	0.482700	-0.105281
O1	O	0.854500	0.391100	0.773600	-0.737827
O2	O	0.889600	0.324100	0.850500	-0.737827
O3	O	0.841500	0.895900	0.265600	-0.673696
O4	O	0.964400	0.790400	0.239500	-0.891818
O5	O	0.926400	0.760300	0.408300	-0.677723
O6	O	0.867000	0.741000	0.345400	-0.677723
O7	O	0.927800	0.090400	0.751110	-0.873985
O8	O	0.042500	0.987800	0.707600	-0.649667
O9	O	0.256300	0.843400	0.162500	-0.677810
O10	O	0.296000	0.696200	0.164400	-0.677810
O11	O	0.902800	0.261600	0.691300	-0.890320
O12	O	0.761300	0.264600	0.728200	-0.673155
O13	O	0.145500	0.608900	0.226400	-0.737827
O14	O	0.110400	0.675900	0.149500	-0.737827
O15	O	0.158500	0.104100	0.734400	-0.673696
O16	O	0.035600	0.209600	0.760500	-0.891818
O17	O	0.073600	0.239700	0.591700	-0.677723
O18	O	0.133000	0.259000	0.654600	-0.677723
O19	O	0.072200	0.909600	0.248890	-0.873985
O20	O	0.957500	0.012200	0.292400	-0.649667
O21	O	0.743700	0.156600	0.837500	-0.677810
O22	O	0.704000	0.303800	0.835600	-0.677810
O23	O	0.097200	0.738400	0.308700	-0.890320
O24	O	0.238700	0.735400	0.271800	-0.673155
