data_KANDEK_clean_PM
_symmetry_space_group_name_H-M	'P1'
_cell_length_a	10.865000
_cell_length_b	10.960000
_cell_length_c	15.272000
_cell_angle_alpha	79.280001
_cell_angle_beta	83.749998
_cell_angle_gamma	84.500001
_symmetry_Int_Tables_number 1

loop_
_symmetry_equiv_pos_as_xyz
'x,y,z'

loop_
_atom_site_label
_atom_site_type_symbol
_atom_site_fract_x
_atom_site_fract_y
_atom_site_fract_z
_atom_site_charge
Zn1	Zn	0.953720	0.841710	0.696360	0.928523
Zn2	Zn	0.945380	0.787650	0.897030	0.928523
Zn3	Zn	0.046280	0.158290	0.303640	0.928523
Zn4	Zn	0.054620	0.212350	0.102970	0.928523
H1	H	0.873500	0.393900	0.924700	0.102188
H2	H	0.872800	0.180500	0.923500	0.102188
H3	H	0.023300	0.239600	0.665800	0.102188
H4	H	0.025300	0.449100	0.670400	0.102188
H5	H	0.566900	0.792000	0.919100	0.102188
H6	H	0.353400	0.770200	0.944200	0.102188
H7	H	0.333300	0.821100	0.675900	0.102188
H8	H	0.544300	0.843900	0.651300	0.102188
H9	H	0.790700	0.610400	0.027800	0.085617
H10	H	0.644000	0.611900	0.148500	0.131989
H11	H	0.729700	0.959300	0.157400	0.131989
H12	H	0.873300	0.946700	0.037000	0.085617
H13	H	0.431800	0.730900	0.179600	0.102885
H14	H	0.269000	0.751200	0.289200	0.102885
H15	H	0.179400	0.683300	0.432300	0.131989
H16	H	0.020600	0.697100	0.544400	0.085617
H17	H	0.125400	0.012300	0.581700	0.085617
H18	H	0.294600	0.002600	0.475700	0.131989
H19	H	0.126500	0.606100	0.075300	0.102188
H20	H	0.127200	0.819500	0.076500	0.102188
H21	H	0.976700	0.760400	0.334200	0.102188
H22	H	0.974700	0.550900	0.329600	0.102188
H23	H	0.433100	0.208000	0.080900	0.102188
H24	H	0.646600	0.229800	0.055800	0.102188
H25	H	0.666700	0.178900	0.324100	0.102188
H26	H	0.455700	0.156100	0.348700	0.102188
H27	H	0.209300	0.389600	0.972200	0.085617
H28	H	0.356000	0.388100	0.851500	0.131989
H29	H	0.270300	0.040700	0.842600	0.131989
H30	H	0.126700	0.053300	0.963000	0.085617
H31	H	0.568200	0.269100	0.820400	0.102885
H32	H	0.731000	0.248800	0.710800	0.102885
H33	H	0.820600	0.316700	0.567700	0.131989
H34	H	0.979400	0.302900	0.455600	0.085617
H35	H	0.874600	0.987700	0.418300	0.085617
H36	H	0.705400	0.997400	0.524300	0.131989
C1	C	0.947100	0.443200	0.797700	-0.129818
C2	C	0.903300	0.362800	0.873100	-0.066290
C3	C	0.903300	0.233800	0.872700	-0.066290
C4	C	0.949500	0.186700	0.795200	-0.129818
C5	C	0.994100	0.269500	0.717900	-0.066290
C6	C	0.993900	0.395400	0.720700	-0.066290
C7	C	0.947900	0.579600	0.799000	0.669694
C8	C	0.951300	0.052500	0.791600	0.669694
C9	C	0.578800	0.819500	0.780900	-0.129818
C10	C	0.519800	0.797800	0.870900	-0.066290
C11	C	0.391700	0.785500	0.886200	-0.066290
C12	C	0.321100	0.796700	0.811300	-0.129818
C13	C	0.379700	0.816400	0.724300	-0.066290
C14	C	0.506900	0.829000	0.709600	-0.066290
C15	C	0.717100	0.832500	0.767700	0.669694
C16	C	0.183100	0.791500	0.826600	0.669694
C17	C	0.777300	0.681100	0.054100	0.180815
C18	C	0.688400	0.681300	0.126500	-0.200487
C19	C	0.667000	0.787200	0.165700	0.123969
C20	C	0.739700	0.888000	0.131700	-0.200487
C21	C	0.826100	0.879400	0.059400	0.180815
C22	C	0.565000	0.796800	0.238500	-0.056213
C23	C	0.445400	0.762600	0.229800	-0.095283
C24	C	0.346500	0.775900	0.296000	-0.095283
C25	C	0.362900	0.826400	0.373200	-0.056213
C26	C	0.484200	0.858100	0.380900	0.158556
C27	C	0.580000	0.843200	0.315900	0.158556
C28	C	0.259500	0.839300	0.443100	0.123969
C29	C	0.172700	0.749300	0.463400	-0.200487
C30	C	0.076200	0.758800	0.530600	0.180815
C31	C	0.138600	0.943400	0.553400	0.180815
C32	C	0.240700	0.939300	0.488200	-0.200487
C33	C	0.052900	0.556800	0.202300	-0.129818
C34	C	0.096700	0.637200	0.126900	-0.066290
C35	C	0.096700	0.766200	0.127300	-0.066290
C36	C	0.050500	0.813300	0.204800	-0.129818
C37	C	0.005900	0.730500	0.282100	-0.066290
C38	C	0.006100	0.604600	0.279300	-0.066290
C39	C	0.052100	0.420400	0.201000	0.669694
C40	C	0.048700	0.947500	0.208400	0.669694
C41	C	0.421200	0.180500	0.219100	-0.129818
C42	C	0.480200	0.202200	0.129100	-0.066290
C43	C	0.608300	0.214500	0.113800	-0.066290
C44	C	0.678900	0.203300	0.188700	-0.129818
C45	C	0.620300	0.183600	0.275700	-0.066290
C46	C	0.493100	0.171000	0.290400	-0.066290
C47	C	0.282900	0.167500	0.232300	0.669694
C48	C	0.816900	0.208500	0.173400	0.669694
C49	C	0.222700	0.318900	0.945900	0.180815
C50	C	0.311600	0.318700	0.873500	-0.200487
C51	C	0.333000	0.212800	0.834300	0.123969
C52	C	0.260300	0.112000	0.868300	-0.200487
C53	C	0.173900	0.120600	0.940600	0.180815
C54	C	0.435000	0.203200	0.761500	-0.056213
C55	C	0.554600	0.237400	0.770200	-0.095283
C56	C	0.653500	0.224100	0.704000	-0.095283
C57	C	0.637100	0.173600	0.626800	-0.056213
C58	C	0.515800	0.141900	0.619100	0.158556
C59	C	0.420000	0.156800	0.684100	0.158556
C60	C	0.740500	0.160700	0.556900	0.123969
C61	C	0.827300	0.250700	0.536600	-0.200487
C62	C	0.923800	0.241200	0.469400	0.180815
C63	C	0.861400	0.056600	0.446600	0.180815
C64	C	0.759300	0.060700	0.511800	-0.200487
N1	N	0.845300	0.779100	0.019800	-0.304836
N2	N	0.060500	0.854900	0.576400	-0.304836
N3	N	0.154700	0.220900	0.980200	-0.304836
N4	N	0.939500	0.145100	0.423600	-0.304836
O1	O	0.952800	0.651800	0.723300	-0.580554
O2	O	0.945100	0.611600	0.875200	-0.580554
O3	O	0.952200	0.977900	0.868200	-0.580554
O4	O	0.953500	0.019800	0.716500	-0.580554
O5	O	0.767100	0.854600	0.686900	-0.580554
O6	O	0.774900	0.821400	0.835900	-0.580554
O7	O	0.132200	0.771900	0.908200	-0.580554
O8	O	0.125100	0.808200	0.759800	-0.580554
O9	O	0.047200	0.348200	0.276700	-0.580554
O10	O	0.054900	0.388400	0.124800	-0.580554
O11	O	0.047800	0.022100	0.131800	-0.580554
O12	O	0.046500	0.980200	0.283500	-0.580554
O13	O	0.232900	0.145400	0.313100	-0.580554
O14	O	0.225100	0.178600	0.164100	-0.580554
O15	O	0.867800	0.228100	0.091800	-0.580554
O16	O	0.874900	0.191800	0.240200	-0.580554
F1	F	0.507300	0.899200	0.454800	-0.154600
F2	F	0.694500	0.875500	0.329000	-0.154600
F3	F	0.492700	0.100800	0.545200	-0.154600
F4	F	0.305500	0.124500	0.671000	-0.154600
