data_KAVKIC_clean_PM
_symmetry_space_group_name_H-M	'P1'
_cell_length_a	15.991900
_cell_length_b	16.361300
_cell_length_c	16.361300
_cell_angle_alpha	76.181899
_cell_angle_beta	60.744001
_cell_angle_gamma	60.744000
_symmetry_Int_Tables_number 1

loop_
_symmetry_equiv_pos_as_xyz
'x,y,z'

loop_
_atom_site_label
_atom_site_type_symbol
_atom_site_fract_x
_atom_site_fract_y
_atom_site_fract_z
_atom_site_charge
Dy1	Dy	0.582360	0.620150	0.033580	2.221389
Dy2	Dy	0.124800	0.887030	0.024950	2.247365
Dy3	Dy	0.736090	0.879850	0.466420	2.221389
Dy4	Dy	0.536780	0.612970	0.475050	2.247365
Dy5	Dy	0.615940	0.966420	0.120150	2.221389
Dy6	Dy	0.149750	0.975050	0.387030	2.247365
Dy7	Dy	0.202510	0.533580	0.379850	2.221389
Dy8	Dy	0.011830	0.524950	0.112970	2.247365
Dy9	Dy	0.417640	0.379850	0.966420	2.221389
Dy10	Dy	0.875200	0.112970	0.975050	2.247365
Dy11	Dy	0.263910	0.120150	0.533580	2.221389
Dy12	Dy	0.463220	0.387030	0.524950	2.247365
Dy13	Dy	0.384060	0.033580	0.879850	2.221389
Dy14	Dy	0.850250	0.024950	0.612970	2.247365
Dy15	Dy	0.797490	0.466420	0.620150	2.221389
Dy16	Dy	0.988170	0.475050	0.887030	2.247365
H1	H	0.052700	0.752600	0.253600	0.030766
H2	H	0.480600	0.598100	0.283500	0.030766
H3	H	0.558900	0.747400	0.246400	0.030766
H4	H	0.862200	0.901900	0.216500	0.030766
H5	H	0.306300	0.746400	0.252600	0.030766
H6	H	0.764100	0.716500	0.098100	0.030766
H7	H	0.805300	0.753600	0.247400	0.030766
H8	H	0.078700	0.783500	0.401900	0.030766
H9	H	0.947300	0.247400	0.746400	0.030766
H10	H	0.519400	0.401900	0.716500	0.030766
H11	H	0.441100	0.252600	0.753600	0.030766
H12	H	0.137800	0.098100	0.783500	0.030766
H13	H	0.693700	0.253600	0.747400	0.030766
H14	H	0.235900	0.283500	0.901900	0.030766
H15	H	0.194700	0.246400	0.752600	0.030766
H16	H	0.921300	0.216500	0.598100	0.030766
C1	C	0.126300	0.725800	0.217800	0.464028
C2	C	0.292000	0.632500	0.171700	0.050128
C3	C	0.280800	0.703400	0.106400	0.046293
C4	C	0.353700	0.724500	0.015900	0.737920
C5	C	0.384200	0.552600	0.180000	0.757013
C6	C	0.552100	0.584300	0.259900	0.464028
C7	C	0.714100	0.556600	0.163200	0.090734
C8	C	0.702000	0.547900	0.254100	0.042671
C9	C	0.773900	0.531700	0.294100	0.714878
C10	C	0.802000	0.545700	0.068100	0.726711
C11	C	0.569900	0.774200	0.282200	0.464028
C12	C	0.596200	0.867500	0.328300	0.050128
C13	C	0.590600	0.796600	0.393600	0.046293
C14	C	0.594100	0.775500	0.484100	0.737920
C15	C	0.616800	0.947400	0.320000	0.757013
C16	C	0.896300	0.915700	0.240100	0.464028
C17	C	0.933900	0.943400	0.336800	0.090734
C18	C	0.004000	0.952100	0.245900	0.042671
C19	C	0.099700	0.968300	0.205900	0.714878
C20	C	0.915800	0.954300	0.431900	0.726711
C21	C	0.344100	0.782200	0.225800	0.464028
C22	C	0.463700	0.828300	0.132500	0.050128
C23	C	0.387200	0.893600	0.203400	0.046293
C24	C	0.369600	0.984100	0.224500	0.737920
C25	C	0.564200	0.820000	0.052600	0.757013
C26	C	0.812000	0.740100	0.084300	0.464028
C27	C	0.877300	0.836800	0.056600	0.090734
C28	C	0.956100	0.745900	0.047900	0.042671
C29	C	0.068000	0.705900	0.031700	0.714878
C30	C	0.870100	0.931900	0.045700	0.726711
C31	C	0.852100	0.717800	0.274200	0.464028
C32	C	0.924500	0.671700	0.367500	0.050128
C33	C	0.984200	0.606400	0.296600	0.046293
C34	C	0.078200	0.515900	0.275500	0.737920
C35	C	0.936800	0.680000	0.447400	0.757013
C36	C	0.136400	0.759900	0.415700	0.464028
C37	C	0.270700	0.663200	0.443400	0.090734
C38	C	0.249900	0.754100	0.452100	0.042671
C39	C	0.305600	0.794100	0.468300	0.714878
C40	C	0.347700	0.568100	0.454300	0.726711
C41	C	0.873700	0.274200	0.782200	0.464028
C42	C	0.708000	0.367500	0.828300	0.050128
C43	C	0.719200	0.296600	0.893600	0.046293
C44	C	0.646300	0.275500	0.984100	0.737920
C45	C	0.615800	0.447400	0.820000	0.757013
C46	C	0.447900	0.415700	0.740100	0.464028
C47	C	0.285900	0.443400	0.836800	0.090734
C48	C	0.298000	0.452100	0.745900	0.042671
C49	C	0.226100	0.468300	0.705900	0.714878
C50	C	0.198000	0.454300	0.931900	0.726711
C51	C	0.430100	0.225800	0.717800	0.464028
C52	C	0.403800	0.132500	0.671700	0.050128
C53	C	0.409400	0.203400	0.606400	0.046293
C54	C	0.405900	0.224500	0.515900	0.737920
C55	C	0.383200	0.052600	0.680000	0.757013
C56	C	0.103700	0.084300	0.759900	0.464028
C57	C	0.066100	0.056600	0.663200	0.090734
C58	C	0.996000	0.047900	0.754100	0.042671
C59	C	0.900300	0.031700	0.794100	0.714878
C60	C	0.084200	0.045700	0.568100	0.726711
C61	C	0.655900	0.217800	0.774200	0.464028
C62	C	0.536300	0.171700	0.867500	0.050128
C63	C	0.612800	0.106400	0.796600	0.046293
C64	C	0.630400	0.015900	0.775500	0.737920
C65	C	0.435800	0.180000	0.947400	0.757013
C66	C	0.188000	0.259900	0.915700	0.464028
C67	C	0.122700	0.163200	0.943400	0.090734
C68	C	0.043900	0.254100	0.952100	0.042671
C69	C	0.932000	0.294100	0.968300	0.714878
C70	C	0.129900	0.068100	0.954300	0.726711
C71	C	0.147900	0.282200	0.725800	0.464028
C72	C	0.075500	0.328300	0.632500	0.050128
C73	C	0.015800	0.393600	0.703400	0.046293
C74	C	0.921800	0.484100	0.724500	0.737920
C75	C	0.063200	0.320000	0.552600	0.757013
C76	C	0.863600	0.240100	0.584300	0.464028
C77	C	0.729300	0.336800	0.556600	0.090734
C78	C	0.750100	0.245900	0.547900	0.042671
C79	C	0.694400	0.205900	0.531700	0.714878
C80	C	0.652300	0.431900	0.545700	0.726711
N1	N	0.173900	0.762900	0.137100	-0.582508
N2	N	0.192600	0.646600	0.243400	-0.610303
N3	N	0.615800	0.580900	0.168100	-0.613175
N4	N	0.598500	0.566700	0.315100	-0.582508
N5	N	0.573900	0.737100	0.362900	-0.582508
N6	N	0.582600	0.853400	0.256600	-0.610303
N7	N	0.864800	0.919100	0.331900	-0.613175
N8	N	0.980300	0.933300	0.184900	-0.582508
N9	N	0.311000	0.862900	0.262900	-0.582508
N10	N	0.436000	0.756600	0.146600	-0.610303
N11	N	0.783900	0.831900	0.080900	-0.613175
N12	N	0.913600	0.684900	0.066700	-0.582508
N13	N	0.936800	0.637100	0.237100	-0.582508
N14	N	0.839200	0.743400	0.353400	-0.610303
N15	N	0.196700	0.668100	0.419100	-0.613175
N16	N	0.165200	0.815100	0.433300	-0.582508
N17	N	0.826100	0.237100	0.862900	-0.582508
N18	N	0.807400	0.353400	0.756600	-0.610303
N19	N	0.384200	0.419100	0.831900	-0.613175
N20	N	0.401500	0.433300	0.684900	-0.582508
N21	N	0.426100	0.262900	0.637100	-0.582508
N22	N	0.417400	0.146600	0.743400	-0.610303
N23	N	0.135200	0.080900	0.668100	-0.613175
N24	N	0.019700	0.066700	0.815100	-0.582508
N25	N	0.689000	0.137100	0.737100	-0.582508
N26	N	0.564000	0.243400	0.853400	-0.610303
N27	N	0.216100	0.168100	0.919100	-0.613175
N28	N	0.086400	0.315100	0.933300	-0.582508
N29	N	0.063200	0.362900	0.762900	-0.582508
N30	N	0.160800	0.256600	0.646600	-0.610303
N31	N	0.803300	0.331900	0.580900	-0.613175
N32	N	0.834800	0.184900	0.566700	-0.582508
O1	O	0.309670	0.793960	0.971100	-0.750414
O2	O	0.453360	0.679120	0.982760	-0.777384
O3	O	0.476800	0.544600	0.128600	-0.776199
O4	O	0.365200	0.492100	0.242500	-0.776199
O5	O	0.729030	0.543400	0.381940	-0.751110
O6	O	0.871720	0.505880	0.243480	-0.751110
O7	O	0.898860	0.513290	0.054190	-0.819321
O8	O	0.778510	0.568060	0.000520	-0.834463
O9	O	0.574730	0.706040	0.528900	-0.750414
O10	O	0.615240	0.820880	0.517240	-0.777384
O11	O	0.650000	0.955400	0.371400	-0.776199
O12	O	0.599800	0.007900	0.257500	-0.776199
O13	O	0.154370	0.956600	0.118060	-0.751110
O14	O	0.121080	0.994120	0.256520	-0.751110
O15	O	0.966340	0.986710	0.445810	-0.819321
O16	O	0.847090	0.931940	0.499480	-0.834463
O17	O	0.280770	0.028900	0.293960	-0.750414
O18	O	0.436120	0.017240	0.179120	-0.777384
O19	O	0.605400	0.871400	0.044600	-0.776199
O20	O	0.607700	0.757500	0.992100	-0.776199
O21	O	0.110970	0.618060	0.043400	-0.751110
O22	O	0.115200	0.756520	0.005880	-0.751110
O23	O	0.953050	0.945810	0.013290	-0.819321
O24	O	0.779030	0.999480	0.068060	-0.834463
O25	O	0.103630	0.471100	0.206040	-0.750414
O26	O	0.132480	0.482760	0.320880	-0.777384
O27	O	0.021400	0.628600	0.455400	-0.776199
O28	O	0.857300	0.742500	0.507900	-0.776199
O29	O	0.272430	0.881940	0.456600	-0.751110
O30	O	0.377600	0.743480	0.494120	-0.751110
O31	O	0.412150	0.554190	0.486710	-0.819321
O32	O	0.346570	0.500520	0.431940	-0.834463
O33	O	0.690330	0.206040	0.028900	-0.750414
O34	O	0.546640	0.320880	0.017240	-0.777384
O35	O	0.523200	0.455400	0.871400	-0.776199
O36	O	0.634800	0.507900	0.757500	-0.776199
O37	O	0.270970	0.456600	0.618060	-0.751110
O38	O	0.128280	0.494120	0.756520	-0.751110
O39	O	0.101140	0.486710	0.945810	-0.819321
O40	O	0.221490	0.431940	0.999480	-0.834463
O41	O	0.425270	0.293960	0.471100	-0.750414
O42	O	0.384760	0.179120	0.482760	-0.777384
O43	O	0.350000	0.044600	0.628600	-0.776199
O44	O	0.400200	0.992100	0.742500	-0.776199
O45	O	0.845630	0.043400	0.881940	-0.751110
O46	O	0.878920	0.005880	0.743480	-0.751110
O47	O	0.033660	0.013290	0.554190	-0.819321
O48	O	0.152910	0.068060	0.500520	-0.834463
O49	O	0.719230	0.971100	0.706040	-0.750414
O50	O	0.563880	0.982760	0.820880	-0.777384
O51	O	0.394600	0.128600	0.955400	-0.776199
O52	O	0.392300	0.242500	0.007900	-0.776199
O53	O	0.889030	0.381940	0.956600	-0.751110
O54	O	0.884800	0.243480	0.994120	-0.751110
O55	O	0.046950	0.054190	0.986710	-0.819321
O56	O	0.220970	0.000520	0.931940	-0.834463
O57	O	0.896370	0.528900	0.793960	-0.750414
O58	O	0.867520	0.517240	0.679120	-0.777384
O59	O	0.978600	0.371400	0.544600	-0.776199
O60	O	0.142700	0.257500	0.492100	-0.776199
O61	O	0.727570	0.118060	0.543400	-0.751110
O62	O	0.622400	0.256520	0.505880	-0.751110
O63	O	0.587850	0.445810	0.513290	-0.819321
O64	O	0.653430	0.499480	0.568060	-0.834463
