data_KAVROQ_clean_PM
_symmetry_space_group_name_H-M	'P1'
_cell_length_a	9.868000
_cell_length_b	18.140000
_cell_length_c	18.247600
_cell_angle_alpha	90.000000
_cell_angle_beta	90.000000
_cell_angle_gamma	90.000000
_symmetry_Int_Tables_number 1

loop_
_symmetry_equiv_pos_as_xyz
'x,y,z'

loop_
_atom_site_label
_atom_site_type_symbol
_atom_site_fract_x
_atom_site_fract_y
_atom_site_fract_z
_atom_site_charge
Zn1	Zn	0.922530	0.937780	0.678700	1.116556
Zn2	Zn	0.109910	0.035850	0.784770	1.120691
Zn3	Zn	0.577470	0.437780	0.821290	1.116556
Zn4	Zn	0.390090	0.535850	0.715220	1.120691
Zn5	Zn	0.077470	0.562220	0.678700	1.116556
Zn6	Zn	0.890090	0.464150	0.784770	1.120691
Zn7	Zn	0.422530	0.062220	0.821290	1.116556
Zn8	Zn	0.609910	0.964150	0.715220	1.120691
Zn9	Zn	0.077470	0.062220	0.321290	1.116556
Zn10	Zn	0.890090	0.964150	0.215220	1.120691
Zn11	Zn	0.422530	0.562220	0.178700	1.116556
Zn12	Zn	0.609910	0.464150	0.284770	1.120691
Zn13	Zn	0.922530	0.437780	0.321290	1.116556
Zn14	Zn	0.109910	0.535850	0.215220	1.120691
Zn15	Zn	0.577470	0.937780	0.178700	1.116556
Zn16	Zn	0.390090	0.035850	0.284770	1.120691
Zn17	Zn	0.000000	0.750000	0.688820	1.111552
Zn18	Zn	0.500000	0.250000	0.811180	1.111552
Zn19	Zn	0.000000	0.250000	0.311180	1.111552
Zn20	Zn	0.500000	0.750000	0.188820	1.111552
Zn21	Zn	0.000000	0.000000	0.500000	1.111552
Zn22	Zn	0.500000	0.500000	0.000000	1.111552
Zn23	Zn	0.000000	0.500000	0.500000	1.111552
Zn24	Zn	0.500000	0.000000	0.000000	1.111552
H1	H	0.151000	0.866600	0.533800	0.007442
H2	H	0.200000	0.877600	0.820400	0.007442
H3	H	0.760000	0.006100	0.862900	0.007442
H4	H	0.038000	0.142400	0.656000	0.007442
H5	H	0.698000	0.760900	0.688300	0.007442
H6	H	0.619000	0.987200	0.551100	0.007442
H7	H	0.349000	0.366600	0.966200	0.007442
H8	H	0.300000	0.377600	0.679600	0.007442
H9	H	0.740000	0.506100	0.637100	0.007442
H10	H	0.462000	0.642400	0.844000	0.007442
H11	H	0.802000	0.260900	0.811700	0.007442
H12	H	0.881000	0.487200	0.948900	0.007442
H13	H	0.849000	0.633400	0.533800	0.007442
H14	H	0.800000	0.622400	0.820400	0.007442
H15	H	0.240000	0.493900	0.862900	0.007442
H16	H	0.962000	0.357600	0.656000	0.007442
H17	H	0.302000	0.739100	0.688300	0.007442
H18	H	0.381000	0.512800	0.551100	0.007442
H19	H	0.651000	0.133400	0.966200	0.007442
H20	H	0.700000	0.122400	0.679600	0.007442
H21	H	0.260000	0.993900	0.637100	0.007442
H22	H	0.538000	0.857600	0.844000	0.007442
H23	H	0.198000	0.239100	0.811700	0.007442
H24	H	0.119000	0.012800	0.948900	0.007442
H25	H	0.849000	0.133400	0.466200	0.007442
H26	H	0.800000	0.122400	0.179600	0.007442
H27	H	0.240000	0.993900	0.137100	0.007442
H28	H	0.962000	0.857600	0.344000	0.007442
H29	H	0.302000	0.239100	0.311700	0.007442
H30	H	0.381000	0.012800	0.448900	0.007442
H31	H	0.651000	0.633400	0.033800	0.007442
H32	H	0.700000	0.622400	0.320400	0.007442
H33	H	0.260000	0.493900	0.362900	0.007442
H34	H	0.538000	0.357600	0.156000	0.007442
H35	H	0.198000	0.739100	0.188300	0.007442
H36	H	0.119000	0.512800	0.051100	0.007442
H37	H	0.151000	0.366600	0.466200	0.007442
H38	H	0.200000	0.377600	0.179600	0.007442
H39	H	0.760000	0.506100	0.137100	0.007442
H40	H	0.038000	0.642400	0.344000	0.007442
H41	H	0.698000	0.260900	0.311700	0.007442
H42	H	0.619000	0.487200	0.448900	0.007442
H43	H	0.349000	0.866600	0.033800	0.007442
H44	H	0.300000	0.877600	0.320400	0.007442
H45	H	0.740000	0.006100	0.362900	0.007442
H46	H	0.462000	0.142400	0.156000	0.007442
H47	H	0.802000	0.760900	0.188300	0.007442
H48	H	0.881000	0.987200	0.051100	0.007442
C1	C	0.101100	0.862860	0.571910	0.686874
C2	C	0.136000	0.867140	0.783230	0.690551
C3	C	0.017200	0.096100	0.638520	0.690551
C4	C	0.829600	0.000470	0.829820	0.696042
C5	C	0.722200	0.811790	0.693820	0.692232
C6	C	0.712400	0.987340	0.560320	0.690551
C7	C	0.398900	0.362860	0.928090	0.686874
C8	C	0.364000	0.367140	0.716770	0.690551
C9	C	0.482800	0.596100	0.861480	0.690551
C10	C	0.670400	0.500470	0.670180	0.696042
C11	C	0.777800	0.311790	0.806180	0.692232
C12	C	0.787600	0.487340	0.939680	0.690551
C13	C	0.898900	0.637140	0.571910	0.686874
C14	C	0.864000	0.632860	0.783230	0.690551
C15	C	0.982800	0.403900	0.638520	0.690551
C16	C	0.170400	0.499530	0.829820	0.696042
C17	C	0.277800	0.688210	0.693820	0.692232
C18	C	0.287600	0.512660	0.560320	0.690551
C19	C	0.601100	0.137140	0.928090	0.686874
C20	C	0.636000	0.132860	0.716770	0.690551
C21	C	0.517200	0.903900	0.861480	0.690551
C22	C	0.329600	0.999530	0.670180	0.696042
C23	C	0.222200	0.188210	0.806180	0.692232
C24	C	0.212400	0.012660	0.939680	0.690551
C25	C	0.898900	0.137140	0.428090	0.686874
C26	C	0.864000	0.132860	0.216770	0.690551
C27	C	0.982800	0.903900	0.361480	0.690551
C28	C	0.170400	0.999530	0.170180	0.696042
C29	C	0.277800	0.188210	0.306180	0.692232
C30	C	0.287600	0.012660	0.439680	0.690551
C31	C	0.601100	0.637140	0.071910	0.686874
C32	C	0.636000	0.632860	0.283230	0.690551
C33	C	0.517200	0.403900	0.138520	0.690551
C34	C	0.329600	0.499530	0.329820	0.696042
C35	C	0.222200	0.688210	0.193820	0.692232
C36	C	0.212400	0.512660	0.060320	0.690551
C37	C	0.101100	0.362860	0.428090	0.686874
C38	C	0.136000	0.367140	0.216770	0.690551
C39	C	0.017200	0.596100	0.361480	0.690551
C40	C	0.829600	0.500470	0.170180	0.696042
C41	C	0.722200	0.311790	0.306180	0.692232
C42	C	0.712400	0.487340	0.439680	0.690551
C43	C	0.398900	0.862860	0.071910	0.686874
C44	C	0.364000	0.867140	0.283230	0.690551
C45	C	0.482800	0.096100	0.138520	0.690551
C46	C	0.670400	0.000470	0.329820	0.696042
C47	C	0.777800	0.811790	0.193820	0.692232
C48	C	0.787600	0.987340	0.060320	0.690551
O1	O	0.026490	0.919030	0.584130	-0.657260
O2	O	0.108190	0.806800	0.609080	-0.594830
O3	O	0.083870	0.922980	0.752360	-0.662054
O4	O	0.110200	0.802040	0.769830	-0.594830
O5	O	0.007410	0.044760	0.685320	-0.662054
O6	O	0.002200	0.089940	0.571630	-0.594830
O7	O	0.801720	0.968560	0.769750	-0.662054
O8	O	0.940810	0.026630	0.847780	-0.599098
O9	O	0.845430	0.831690	0.686840	-0.657260
O10	O	0.791190	0.991270	0.507630	-0.594830
O11	O	0.622980	0.852480	0.704080	-0.599098
O12	O	0.745130	0.978770	0.627320	-0.662054
O13	O	0.473510	0.419030	0.915870	-0.657260
O14	O	0.391810	0.306800	0.890920	-0.594830
O15	O	0.416130	0.422980	0.747640	-0.662054
O16	O	0.389800	0.302040	0.730170	-0.594830
O17	O	0.492590	0.544760	0.814680	-0.662054
O18	O	0.497800	0.589940	0.928370	-0.594830
O19	O	0.698280	0.468560	0.730250	-0.662054
O20	O	0.559190	0.526630	0.652220	-0.599098
O21	O	0.654570	0.331690	0.813160	-0.657260
O22	O	0.708810	0.491270	0.992370	-0.594830
O23	O	0.877020	0.352480	0.795920	-0.599098
O24	O	0.754870	0.478770	0.872680	-0.662054
O25	O	0.973510	0.580970	0.584130	-0.657260
O26	O	0.891810	0.693200	0.609080	-0.594830
O27	O	0.916130	0.577020	0.752360	-0.662054
O28	O	0.889800	0.697960	0.769830	-0.594830
O29	O	0.992590	0.455240	0.685320	-0.662054
O30	O	0.997800	0.410060	0.571630	-0.594830
O31	O	0.198280	0.531440	0.769750	-0.662054
O32	O	0.059190	0.473370	0.847780	-0.599098
O33	O	0.154570	0.668310	0.686840	-0.657260
O34	O	0.208810	0.508730	0.507630	-0.594830
O35	O	0.377020	0.647520	0.704080	-0.599098
O36	O	0.254870	0.521230	0.627320	-0.662054
O37	O	0.526490	0.080970	0.915870	-0.657260
O38	O	0.608190	0.193200	0.890920	-0.594830
O39	O	0.583870	0.077020	0.747640	-0.662054
O40	O	0.610200	0.197960	0.730170	-0.594830
O41	O	0.507410	0.955240	0.814680	-0.662054
O42	O	0.502200	0.910060	0.928370	-0.594830
O43	O	0.301720	0.031440	0.730250	-0.662054
O44	O	0.440810	0.973370	0.652220	-0.599098
O45	O	0.345430	0.168310	0.813160	-0.657260
O46	O	0.291190	0.008730	0.992370	-0.594830
O47	O	0.122980	0.147520	0.795920	-0.599098
O48	O	0.245130	0.021230	0.872680	-0.662054
O49	O	0.973510	0.080970	0.415870	-0.657260
O50	O	0.891810	0.193200	0.390920	-0.594830
O51	O	0.916130	0.077020	0.247640	-0.662054
O52	O	0.889800	0.197960	0.230170	-0.594830
O53	O	0.992590	0.955240	0.314680	-0.662054
O54	O	0.997800	0.910060	0.428370	-0.594830
O55	O	0.198280	0.031440	0.230250	-0.662054
O56	O	0.059190	0.973370	0.152220	-0.599098
O57	O	0.154570	0.168310	0.313160	-0.657260
O58	O	0.208810	0.008730	0.492370	-0.594830
O59	O	0.377020	0.147520	0.295920	-0.599098
O60	O	0.254870	0.021230	0.372680	-0.662054
O61	O	0.526490	0.580970	0.084130	-0.657260
O62	O	0.608190	0.693200	0.109080	-0.594830
O63	O	0.583870	0.577020	0.252360	-0.662054
O64	O	0.610200	0.697960	0.269830	-0.594830
O65	O	0.507410	0.455240	0.185320	-0.662054
O66	O	0.502200	0.410060	0.071630	-0.594830
O67	O	0.301720	0.531440	0.269750	-0.662054
O68	O	0.440810	0.473370	0.347780	-0.599098
O69	O	0.345430	0.668310	0.186840	-0.657260
O70	O	0.291190	0.508730	0.007630	-0.594830
O71	O	0.122980	0.647520	0.204080	-0.599098
O72	O	0.245130	0.521230	0.127320	-0.662054
O73	O	0.026490	0.419030	0.415870	-0.657260
O74	O	0.108190	0.306800	0.390920	-0.594830
O75	O	0.083870	0.422980	0.247640	-0.662054
O76	O	0.110200	0.302040	0.230170	-0.594830
O77	O	0.007410	0.544760	0.314680	-0.662054
O78	O	0.002200	0.589940	0.428370	-0.594830
O79	O	0.801720	0.468560	0.230250	-0.662054
O80	O	0.940810	0.526630	0.152220	-0.599098
O81	O	0.845430	0.331690	0.313160	-0.657260
O82	O	0.791190	0.491270	0.492370	-0.594830
O83	O	0.622980	0.352480	0.295920	-0.599098
O84	O	0.745130	0.478770	0.372680	-0.662054
O85	O	0.473510	0.919030	0.084130	-0.657260
O86	O	0.391810	0.806800	0.109080	-0.594830
O87	O	0.416130	0.922980	0.252360	-0.662054
O88	O	0.389800	0.802040	0.269830	-0.594830
O89	O	0.492590	0.044760	0.185320	-0.662054
O90	O	0.497800	0.089940	0.071630	-0.594830
O91	O	0.698280	0.968560	0.269750	-0.662054
O92	O	0.559190	0.026630	0.347780	-0.599098
O93	O	0.654570	0.831690	0.186840	-0.657260
O94	O	0.708810	0.991270	0.007630	-0.594830
O95	O	0.877020	0.852480	0.204080	-0.599098
O96	O	0.754870	0.978770	0.127320	-0.662054
