data_KAWBOB_clean_PM
_symmetry_space_group_name_H-M	'P1'
_cell_length_a	9.556500
_cell_length_b	12.470600
_cell_length_c	22.757100
_cell_angle_alpha	90.000000
_cell_angle_beta	101.594001
_cell_angle_gamma	90.000000
_symmetry_Int_Tables_number 1

loop_
_symmetry_equiv_pos_as_xyz
'x,y,z'

loop_
_atom_site_label
_atom_site_type_symbol
_atom_site_fract_x
_atom_site_fract_y
_atom_site_fract_z
_atom_site_charge
Mn1	Mn	0.942170	0.193490	0.309210	1.184776
Mn2	Mn	0.615080	0.356490	0.282710	1.181629
Mn3	Mn	0.217390	0.330130	0.273970	1.181313
Mn4	Mn	0.442170	0.806510	0.809210	1.184776
Mn5	Mn	0.115080	0.643510	0.782710	1.181629
Mn6	Mn	0.717390	0.669870	0.773970	1.181313
H1	H	0.416200	0.194200	0.259500	0.420546
H2	H	0.443100	0.219000	0.319400	0.420546
H3	H	0.149300	0.953200	0.138300	0.084877
H4	H	0.200900	0.881300	0.197000	0.084877
H5	H	0.977600	0.038200	0.186200	0.141200
H6	H	0.033700	0.968300	0.245000	0.141200
H7	H	0.745800	0.570800	0.186100	0.084877
H8	H	0.826500	0.637600	0.243000	0.084877
H9	H	0.044100	0.549800	0.236800	0.146159
H10	H	0.961800	0.481900	0.180600	0.146159
H11	H	0.722100	0.870000	0.001800	0.084877
H12	H	0.634000	0.764200	0.011400	0.084877
H13	H	0.890500	0.769800	0.965900	0.141833
H14	H	0.821700	0.660300	0.982900	0.141833
H15	H	0.647000	0.160100	0.495300	0.084877
H16	H	0.725800	0.050900	0.483700	0.084877
H17	H	0.839600	0.255200	0.459800	0.141200
H18	H	0.886700	0.141500	0.437800	0.141200
H19	H	0.039800	0.362300	0.686000	0.084877
H20	H	0.915900	0.405800	0.633600	0.084877
H21	H	0.865200	0.310000	0.739700	0.141833
H22	H	0.745600	0.362300	0.688100	0.141833
H23	H	0.196600	0.979100	0.608700	0.084877
H24	H	0.221500	0.026300	0.675500	0.084877
H25	H	0.034000	0.861500	0.625900	0.141833
H26	H	0.008600	0.924000	0.684000	0.141833
H27	H	0.916200	0.805800	0.759500	0.420546
H28	H	0.943100	0.781000	0.819400	0.420546
H29	H	0.649300	0.046800	0.638300	0.084877
H30	H	0.700900	0.118700	0.697000	0.084877
H31	H	0.477600	0.961800	0.686200	0.141200
H32	H	0.533700	0.031700	0.745000	0.141200
H33	H	0.245800	0.429200	0.686100	0.084877
H34	H	0.326500	0.362400	0.743000	0.084877
H35	H	0.544100	0.450200	0.736800	0.146159
H36	H	0.461800	0.518100	0.680600	0.146159
H37	H	0.222100	0.130000	0.501800	0.084877
H38	H	0.134000	0.235800	0.511400	0.084877
H39	H	0.390500	0.230200	0.465900	0.141833
H40	H	0.321700	0.339700	0.482900	0.141833
H41	H	0.147000	0.839900	0.995300	0.084877
H42	H	0.225800	0.949100	0.983700	0.084877
H43	H	0.339600	0.744800	0.959800	0.141200
H44	H	0.386700	0.858500	0.937800	0.141200
H45	H	0.539800	0.637700	0.186000	0.084877
H46	H	0.415900	0.594200	0.133600	0.084877
H47	H	0.365200	0.690000	0.239700	0.141833
H48	H	0.245600	0.637700	0.188100	0.141833
H49	H	0.696600	0.020900	0.108700	0.084877
H50	H	0.721500	0.973700	0.175500	0.084877
H51	H	0.534000	0.138500	0.125900	0.141833
H52	H	0.508600	0.076000	0.184000	0.141833
C1	C	0.977020	0.762300	0.188420	0.611487
C2	C	0.791540	0.694900	0.107540	0.611487
C3	C	0.927840	0.855200	0.092640	0.611487
C4	C	0.117600	0.918500	0.172500	0.074354
C5	C	0.063400	0.004100	0.210700	-0.384140
C6	C	0.168200	0.089200	0.234100	0.743042
C7	C	0.838300	0.603700	0.205000	0.079900
C8	C	0.951200	0.517200	0.218400	-0.392344
C9	C	0.909240	0.434000	0.261140	0.793749
C10	C	0.730970	0.793000	0.012470	0.075534
C11	C	0.799100	0.734000	0.967900	-0.382665
C12	C	0.710710	0.727200	0.905310	0.778356
C13	C	0.826700	0.229500	0.586000	0.611487
C14	C	0.037910	0.171700	0.657610	0.611487
C15	C	0.945670	0.065300	0.567770	0.611487
C16	C	0.740770	0.127900	0.493570	0.074354
C17	C	0.803900	0.183700	0.444900	-0.384140
C18	C	0.702610	0.196900	0.387810	0.739425
C19	C	0.939400	0.350600	0.665300	0.075534
C20	C	0.846900	0.367200	0.708900	-0.382665
C21	C	0.873600	0.475900	0.739400	0.775809
C22	C	0.148300	0.998100	0.641900	0.075534
C23	C	0.082800	0.901100	0.661900	-0.382665
C24	C	0.182400	0.824500	0.701300	0.776068
C25	C	0.477020	0.237700	0.688420	0.611487
C26	C	0.291540	0.305100	0.607540	0.611487
C27	C	0.427840	0.144800	0.592640	0.611487
C28	C	0.617600	0.081500	0.672500	0.074354
C29	C	0.563400	0.995900	0.710700	-0.384140
C30	C	0.668200	0.910800	0.734100	0.743042
C31	C	0.338300	0.396300	0.705000	0.079900
C32	C	0.451200	0.482800	0.718400	-0.392344
C33	C	0.409240	0.566000	0.761140	0.793749
C34	C	0.230970	0.207000	0.512470	0.075534
C35	C	0.299100	0.266000	0.467900	-0.382665
C36	C	0.210710	0.272800	0.405310	0.778356
C37	C	0.326700	0.770500	0.086000	0.611487
C38	C	0.537910	0.828300	0.157610	0.611487
C39	C	0.445670	0.934700	0.067770	0.611487
C40	C	0.240770	0.872100	0.993570	0.074354
C41	C	0.303900	0.816300	0.944900	-0.384140
C42	C	0.202610	0.803100	0.887810	0.739425
C43	C	0.439400	0.649400	0.165300	0.075534
C44	C	0.346900	0.632800	0.208900	-0.382665
C45	C	0.373600	0.524100	0.239400	0.775809
C46	C	0.648300	0.001900	0.141900	0.075534
C47	C	0.582800	0.098900	0.161900	-0.382665
C48	C	0.682400	0.175500	0.201300	0.776068
N1	N	0.005530	0.840300	0.150030	-0.302710
N2	N	0.876590	0.686300	0.164690	-0.302710
N3	N	0.818700	0.780700	0.073800	-0.302710
N4	N	0.838950	0.139400	0.552950	-0.302710
N5	N	0.928790	0.244200	0.636590	-0.302710
N6	N	0.040430	0.082000	0.621430	-0.302710
N7	N	0.505530	0.159700	0.650030	-0.302710
N8	N	0.376590	0.313700	0.664690	-0.302710
N9	N	0.318700	0.219300	0.573800	-0.302710
N10	N	0.338950	0.860600	0.052950	-0.302710
N11	N	0.428790	0.755800	0.136590	-0.302710
N12	N	0.540430	0.918000	0.121430	-0.302710
O1	O	0.038250	0.757600	0.240250	-0.479126
O2	O	0.697700	0.631900	0.088600	-0.479126
O3	O	0.950540	0.928600	0.060440	-0.479126
O4	O	0.128370	0.161400	0.267370	-0.729516
O5	O	0.289780	0.086400	0.221480	-0.623981
O6	O	0.799580	0.448500	0.280980	-0.620836
O7	O	0.990130	0.352200	0.273230	-0.716963
O8	O	0.761180	0.671500	0.868880	-0.650257
O9	O	0.592330	0.777400	0.893430	-0.650058
O10	O	0.731520	0.294100	0.569720	-0.479126
O11	O	0.123620	0.186400	0.701320	-0.479126
O12	O	0.960680	0.989200	0.535580	-0.479126
O13	O	0.749410	0.236100	0.343210	-0.728112
O14	O	0.574080	0.171800	0.385380	-0.623981
O15	O	0.982560	0.526900	0.731860	-0.648148
O16	O	0.784520	0.509000	0.769920	-0.650257
O17	O	0.297970	0.862800	0.730170	-0.650058
O18	O	0.139740	0.730800	0.705440	-0.648148
O19	O	0.427390	0.245800	0.284390	-0.906085
O20	O	0.538250	0.242400	0.740250	-0.479126
O21	O	0.197700	0.368100	0.588600	-0.479126
O22	O	0.450540	0.071400	0.560440	-0.479126
O23	O	0.628370	0.838600	0.767370	-0.729516
O24	O	0.789780	0.913600	0.721480	-0.623981
O25	O	0.299580	0.551500	0.780980	-0.620836
O26	O	0.490130	0.647800	0.773230	-0.716963
O27	O	0.261180	0.328500	0.368880	-0.650257
O28	O	0.092330	0.222600	0.393430	-0.650058
O29	O	0.231520	0.705900	0.069720	-0.479126
O30	O	0.623620	0.813600	0.201320	-0.479126
O31	O	0.460680	0.010800	0.035580	-0.479126
O32	O	0.249410	0.763900	0.843210	-0.728112
O33	O	0.074080	0.828200	0.885380	-0.623981
O34	O	0.482560	0.473100	0.231860	-0.648148
O35	O	0.284520	0.491000	0.269920	-0.650257
O36	O	0.797970	0.137200	0.230170	-0.650058
O37	O	0.639740	0.269200	0.205440	-0.648148
O38	O	0.927390	0.754200	0.784390	-0.906085
