data_KIDDIM_clean_PM
_symmetry_space_group_name_H-M	'P1'
_cell_length_a	16.263600
_cell_length_b	16.263600
_cell_length_c	22.199300
_cell_angle_alpha	68.511901
_cell_angle_beta	68.511799
_cell_angle_gamma	59.999999
_symmetry_Int_Tables_number 1

loop_
_symmetry_equiv_pos_as_xyz
'x,y,z'

loop_
_atom_site_label
_atom_site_type_symbol
_atom_site_fract_x
_atom_site_fract_y
_atom_site_fract_z
_atom_site_charge
Cd1	Cd	0.364450	0.545080	0.281140	1.028079
Cd2	Cd	0.545080	0.809330	0.281140	1.028079
Cd3	Cd	0.809330	0.364450	0.281140	1.028079
Cd4	Cd	0.135550	0.690670	0.218860	1.028079
Cd5	Cd	0.954920	0.135550	0.218860	1.028079
Cd6	Cd	0.690670	0.954920	0.218860	1.028079
Cd7	Cd	0.635550	0.454920	0.718860	1.028079
Cd8	Cd	0.454920	0.190670	0.718860	1.028079
Cd9	Cd	0.190670	0.635550	0.718860	1.028079
Cd10	Cd	0.864450	0.309330	0.781140	1.028079
Cd11	Cd	0.045080	0.864450	0.781140	1.028079
Cd12	Cd	0.309330	0.045080	0.781140	1.028079
H1	H	0.237100	0.493100	0.284700	0.438325
H2	H	0.170300	0.288600	0.470100	0.104846
H3	H	0.184200	0.199300	0.585600	0.104846
H4	H	0.391800	0.568400	0.410700	0.091315
H5	H	0.461500	0.455700	0.410700	0.091315
H6	H	0.584900	0.410200	0.311400	0.085598
H7	H	0.598100	0.492000	0.246000	0.085598
H8	H	0.493100	0.985100	0.284700	0.438325
H9	H	0.288600	0.071000	0.470100	0.104846
H10	H	0.199300	0.030900	0.585600	0.104846
H11	H	0.568400	0.629100	0.410700	0.091315
H12	H	0.455700	0.672100	0.410700	0.091315
H13	H	0.410200	0.693500	0.311400	0.085598
H14	H	0.492000	0.663900	0.246000	0.085598
H15	H	0.985100	0.237100	0.284700	0.438325
H16	H	0.071000	0.170300	0.470100	0.104846
H17	H	0.030900	0.184200	0.585600	0.104846
H18	H	0.629100	0.391800	0.410700	0.091315
H19	H	0.672100	0.461500	0.410700	0.091315
H20	H	0.693500	0.584900	0.311400	0.085598
H21	H	0.663900	0.598100	0.246000	0.085598
H22	H	0.262900	0.514900	0.215300	0.438325
H23	H	0.329700	0.429000	0.029900	0.104846
H24	H	0.315800	0.469100	0.914400	0.104846
H25	H	0.108200	0.870900	0.089300	0.091315
H26	H	0.038500	0.827900	0.089300	0.091315
H27	H	0.915100	0.806500	0.188600	0.085598
H28	H	0.901900	0.836100	0.254000	0.085598
H29	H	0.006900	0.262900	0.215300	0.438325
H30	H	0.211400	0.329700	0.029900	0.104846
H31	H	0.300700	0.315800	0.914400	0.104846
H32	H	0.931600	0.108200	0.089300	0.091315
H33	H	0.044300	0.038500	0.089300	0.091315
H34	H	0.089800	0.915100	0.188600	0.085598
H35	H	0.008000	0.901900	0.254000	0.085598
H36	H	0.514900	0.006900	0.215300	0.438325
H37	H	0.429000	0.211400	0.029900	0.104846
H38	H	0.469100	0.300700	0.914400	0.104846
H39	H	0.870900	0.931600	0.089300	0.091315
H40	H	0.827900	0.044300	0.089300	0.091315
H41	H	0.806500	0.089800	0.188600	0.085598
H42	H	0.836100	0.008000	0.254000	0.085598
H43	H	0.762900	0.506900	0.715300	0.438325
H44	H	0.829700	0.711400	0.529900	0.104846
H45	H	0.815800	0.800700	0.414400	0.104846
H46	H	0.608200	0.431600	0.589300	0.091315
H47	H	0.538500	0.544300	0.589300	0.091315
H48	H	0.415100	0.589800	0.688600	0.085598
H49	H	0.401900	0.508000	0.754000	0.085598
H50	H	0.506900	0.014900	0.715300	0.438325
H51	H	0.711400	0.929000	0.529900	0.104846
H52	H	0.800700	0.969100	0.414400	0.104846
H53	H	0.431600	0.370900	0.589300	0.091315
H54	H	0.544300	0.327900	0.589300	0.091315
H55	H	0.589800	0.306500	0.688600	0.085598
H56	H	0.508000	0.336100	0.754000	0.085598
H57	H	0.014900	0.762900	0.715300	0.438325
H58	H	0.929000	0.829700	0.529900	0.104846
H59	H	0.969100	0.815800	0.414400	0.104846
H60	H	0.370900	0.608200	0.589300	0.091315
H61	H	0.327900	0.538500	0.589300	0.091315
H62	H	0.306500	0.415100	0.688600	0.085598
H63	H	0.336100	0.401900	0.754000	0.085598
H64	H	0.737100	0.485100	0.784700	0.438325
H65	H	0.670300	0.571000	0.970100	0.104846
H66	H	0.684200	0.530900	0.085600	0.104846
H67	H	0.891800	0.129100	0.910700	0.091315
H68	H	0.961500	0.172100	0.910700	0.091315
H69	H	0.084900	0.193500	0.811400	0.085598
H70	H	0.098100	0.163900	0.746000	0.085598
H71	H	0.993100	0.737100	0.784700	0.438325
H72	H	0.788600	0.670300	0.970100	0.104846
H73	H	0.699300	0.684200	0.085600	0.104846
H74	H	0.068400	0.891800	0.910700	0.091315
H75	H	0.955700	0.961500	0.910700	0.091315
H76	H	0.910200	0.084900	0.811400	0.085598
H77	H	0.992000	0.098100	0.746000	0.085598
H78	H	0.485100	0.993100	0.784700	0.438325
H79	H	0.571000	0.788600	0.970100	0.104846
H80	H	0.530900	0.699300	0.085600	0.104846
H81	H	0.129100	0.068400	0.910700	0.091315
H82	H	0.172100	0.955700	0.910700	0.091315
H83	H	0.193500	0.910200	0.811400	0.085598
H84	H	0.163900	0.992000	0.746000	0.085598
C1	C	0.273110	0.405610	0.395370	0.666952
C2	C	0.262270	0.344970	0.464190	-0.178456
C3	C	0.208470	0.291370	0.492390	-0.070016
C4	C	0.216150	0.240450	0.558750	-0.069419
C5	C	0.274520	0.256920	0.579840	-0.196750
C6	C	0.298800	0.216300	0.646500	0.708474
C7	C	0.458690	0.522390	0.393630	0.153110
C8	C	0.581390	0.476990	0.295230	0.152443
C9	C	0.405610	0.925910	0.395370	0.666952
C10	C	0.344970	0.928570	0.464190	-0.178456
C11	C	0.291370	0.007770	0.492390	-0.070016
C12	C	0.240450	0.984650	0.558750	-0.069419
C13	C	0.256920	0.888720	0.579840	-0.196750
C14	C	0.216300	0.838400	0.646500	0.708474
C15	C	0.522390	0.625290	0.393630	0.153110
C16	C	0.476990	0.646390	0.295230	0.152443
C17	C	0.925910	0.273110	0.395370	0.666952
C18	C	0.928570	0.262270	0.464190	-0.178456
C19	C	0.007770	0.208470	0.492390	-0.070016
C20	C	0.984650	0.216150	0.558750	-0.069419
C21	C	0.888720	0.274520	0.579840	-0.196750
C22	C	0.838400	0.298800	0.646500	0.708474
C23	C	0.625290	0.458690	0.393630	0.153110
C24	C	0.646390	0.581390	0.295230	0.152443
C25	C	0.226890	0.574090	0.104630	0.666952
C26	C	0.237730	0.571430	0.035810	-0.178456
C27	C	0.291530	0.492230	0.007610	-0.070016
C28	C	0.283850	0.515350	0.941250	-0.069419
C29	C	0.225480	0.611280	0.920160	-0.196750
C30	C	0.201200	0.661600	0.853500	0.708474
C31	C	0.041310	0.874710	0.106370	0.153110
C32	C	0.918610	0.853610	0.204770	0.152443
C33	C	0.094390	0.226890	0.104630	0.666952
C34	C	0.155030	0.237730	0.035810	-0.178456
C35	C	0.208630	0.291530	0.007610	-0.070016
C36	C	0.259550	0.283850	0.941250	-0.069419
C37	C	0.243080	0.225480	0.920160	-0.196750
C38	C	0.283700	0.201200	0.853500	0.708474
C39	C	0.977610	0.041310	0.106370	0.153110
C40	C	0.023010	0.918610	0.204770	0.152443
C41	C	0.574090	0.094390	0.104630	0.666952
C42	C	0.571430	0.155030	0.035810	-0.178456
C43	C	0.492230	0.208630	0.007610	-0.070016
C44	C	0.515350	0.259550	0.941250	-0.069419
C45	C	0.611280	0.243080	0.920160	-0.196750
C46	C	0.661600	0.283700	0.853500	0.708474
C47	C	0.874710	0.977610	0.106370	0.153110
C48	C	0.853610	0.023010	0.204770	0.152443
C49	C	0.726890	0.594390	0.604630	0.666952
C50	C	0.737730	0.655030	0.535810	-0.178456
C51	C	0.791530	0.708630	0.507610	-0.070016
C52	C	0.783850	0.759550	0.441250	-0.069419
C53	C	0.725480	0.743080	0.420160	-0.196750
C54	C	0.701200	0.783700	0.353500	0.708474
C55	C	0.541310	0.477610	0.606370	0.153110
C56	C	0.418610	0.523010	0.704770	0.152443
C57	C	0.594390	0.074090	0.604630	0.666952
C58	C	0.655030	0.071430	0.535810	-0.178456
C59	C	0.708630	0.992230	0.507610	-0.070016
C60	C	0.759550	0.015350	0.441250	-0.069419
C61	C	0.743080	0.111280	0.420160	-0.196750
C62	C	0.783700	0.161600	0.353500	0.708474
C63	C	0.477610	0.374710	0.606370	0.153110
C64	C	0.523010	0.353610	0.704770	0.152443
C65	C	0.074090	0.726890	0.604630	0.666952
C66	C	0.071430	0.737730	0.535810	-0.178456
C67	C	0.992230	0.791530	0.507610	-0.070016
C68	C	0.015350	0.783850	0.441250	-0.069419
C69	C	0.111280	0.725480	0.420160	-0.196750
C70	C	0.161600	0.701200	0.353500	0.708474
C71	C	0.374710	0.541310	0.606370	0.153110
C72	C	0.353610	0.418610	0.704770	0.152443
C73	C	0.773110	0.425910	0.895370	0.666952
C74	C	0.762270	0.428570	0.964190	-0.178456
C75	C	0.708470	0.507770	0.992390	-0.070016
C76	C	0.716150	0.484650	0.058750	-0.069419
C77	C	0.774520	0.388720	0.079840	-0.196750
C78	C	0.798800	0.338400	0.146500	0.708474
C79	C	0.958690	0.125290	0.893630	0.153110
C80	C	0.081390	0.146390	0.795230	0.152443
C81	C	0.905610	0.773110	0.895370	0.666952
C82	C	0.844970	0.762270	0.964190	-0.178456
C83	C	0.791370	0.708470	0.992390	-0.070016
C84	C	0.740450	0.716150	0.058750	-0.069419
C85	C	0.756920	0.774520	0.079840	-0.196750
C86	C	0.716300	0.798800	0.146500	0.708474
C87	C	0.022390	0.958690	0.893630	0.153110
C88	C	0.976990	0.081390	0.795230	0.152443
C89	C	0.425910	0.905610	0.895370	0.666952
C90	C	0.428570	0.844970	0.964190	-0.178456
C91	C	0.507770	0.791370	0.992390	-0.070016
C92	C	0.484650	0.740450	0.058750	-0.069419
C93	C	0.388720	0.756920	0.079840	-0.196750
C94	C	0.338400	0.716300	0.146500	0.708474
C95	C	0.125290	0.022390	0.893630	0.153110
C96	C	0.146390	0.976990	0.795230	0.152443
S1	S	0.322760	0.332750	0.518460	0.133522
S2	S	0.332750	0.826030	0.518460	0.133522
S3	S	0.826030	0.322760	0.518460	0.133522
S4	S	0.177240	0.673970	0.981540	0.133522
S5	S	0.167250	0.177240	0.981540	0.133522
S6	S	0.673970	0.167250	0.981540	0.133522
S7	S	0.677240	0.667250	0.481540	0.133522
S8	S	0.667250	0.173970	0.481540	0.133522
S9	S	0.173970	0.677240	0.481540	0.133522
S10	S	0.822760	0.326030	0.018460	0.133522
S11	S	0.832750	0.822760	0.018460	0.133522
S12	S	0.326030	0.832750	0.018460	0.133522
N1	N	0.480830	0.547130	0.318810	-0.327486
N2	N	0.547130	0.653230	0.318810	-0.327486
N3	N	0.653230	0.480830	0.318810	-0.327486
N4	N	0.019170	0.846770	0.181190	-0.327486
N5	N	0.952870	0.019170	0.181190	-0.327486
N6	N	0.846770	0.952870	0.181190	-0.327486
N7	N	0.519170	0.452870	0.681190	-0.327486
N8	N	0.452870	0.346770	0.681190	-0.327486
N9	N	0.346770	0.519170	0.681190	-0.327486
N10	N	0.980830	0.153230	0.818810	-0.327486
N11	N	0.047130	0.980830	0.818810	-0.327486
N12	N	0.153230	0.047130	0.818810	-0.327486
N13	N	0.527440	0.527440	0.417680	-0.288254
N14	N	0.972560	0.972560	0.082320	-0.288254
N15	N	0.472560	0.472560	0.582320	-0.288254
N16	N	0.027440	0.027440	0.917680	-0.288254
O1	O	0.341670	0.432630	0.375690	-0.631158
O2	O	0.215380	0.424380	0.362760	-0.601265
O3	O	0.272890	0.149710	0.684570	-0.615558
O4	O	0.343140	0.251380	0.658080	-0.615558
O5	O	0.432630	0.850010	0.375690	-0.631158
O6	O	0.424380	0.997480	0.362760	-0.601265
O7	O	0.149710	0.892830	0.684570	-0.615558
O8	O	0.251380	0.747400	0.658080	-0.615558
O9	O	0.850010	0.341670	0.375690	-0.631158
O10	O	0.997480	0.215380	0.362760	-0.601265
O11	O	0.892830	0.272890	0.684570	-0.615558
O12	O	0.747400	0.343140	0.658080	-0.615558
O13	O	0.158330	0.649990	0.124310	-0.631158
O14	O	0.284620	0.502520	0.137240	-0.601265
O15	O	0.227110	0.607170	0.815430	-0.615558
O16	O	0.156860	0.752600	0.841920	-0.615558
O17	O	0.067370	0.158330	0.124310	-0.631158
O18	O	0.075620	0.284620	0.137240	-0.601265
O19	O	0.350290	0.227110	0.815430	-0.615558
O20	O	0.248620	0.156860	0.841920	-0.615558
O21	O	0.649990	0.067370	0.124310	-0.631158
O22	O	0.502520	0.075620	0.137240	-0.601265
O23	O	0.607170	0.350290	0.815430	-0.615558
O24	O	0.752600	0.248620	0.841920	-0.615558
O25	O	0.658330	0.567370	0.624310	-0.631158
O26	O	0.784620	0.575620	0.637240	-0.601265
O27	O	0.727110	0.850290	0.315430	-0.615558
O28	O	0.656860	0.748620	0.341920	-0.615558
O29	O	0.567370	0.149990	0.624310	-0.631158
O30	O	0.575620	0.002520	0.637240	-0.601265
O31	O	0.850290	0.107170	0.315430	-0.615558
O32	O	0.748620	0.252600	0.341920	-0.615558
O33	O	0.149990	0.658330	0.624310	-0.631158
O34	O	0.002520	0.784620	0.637240	-0.601265
O35	O	0.107170	0.727110	0.315430	-0.615558
O36	O	0.252600	0.656860	0.341920	-0.615558
O37	O	0.841670	0.350010	0.875690	-0.631158
O38	O	0.715380	0.497480	0.862760	-0.601265
O39	O	0.772890	0.392830	0.184570	-0.615558
O40	O	0.843140	0.247400	0.158080	-0.615558
O41	O	0.932630	0.841670	0.875690	-0.631158
O42	O	0.924380	0.715380	0.862760	-0.601265
O43	O	0.649710	0.772890	0.184570	-0.615558
O44	O	0.751380	0.843140	0.158080	-0.615558
O45	O	0.350010	0.932630	0.875690	-0.631158
O46	O	0.497480	0.924380	0.862760	-0.601265
O47	O	0.392830	0.649710	0.184570	-0.615558
O48	O	0.247400	0.751380	0.158080	-0.615558
O49	O	0.250000	0.535050	0.250000	-0.885342
O50	O	0.535050	0.964950	0.250000	-0.885342
O51	O	0.964950	0.250000	0.250000	-0.885342
O52	O	0.750000	0.464950	0.750000	-0.885342
O53	O	0.464950	0.035050	0.750000	-0.885342
O54	O	0.035050	0.750000	0.750000	-0.885342
