data_KIFKEQ_clean_PM
_symmetry_space_group_name_H-M	'P1'
_cell_length_a	12.194800
_cell_length_b	13.783500
_cell_length_c	18.384000
_cell_angle_alpha	90.000000
_cell_angle_beta	90.000000
_cell_angle_gamma	113.959998
_symmetry_Int_Tables_number 1

loop_
_symmetry_equiv_pos_as_xyz
'x,y,z'

loop_
_atom_site_label
_atom_site_type_symbol
_atom_site_fract_x
_atom_site_fract_y
_atom_site_fract_z
_atom_site_charge
Mg1	Mg	0.680070	0.915830	0.520720	1.599062
Mg2	Mg	0.819930	0.084170	0.020720	1.599062
Mg3	Mg	0.319930	0.084170	0.479280	1.599062
Mg4	Mg	0.180070	0.915830	0.979280	1.599062
Mg5	Mg	0.000000	0.000000	0.500000	1.497571
Mg6	Mg	0.500000	0.000000	0.000000	1.497571
H1	H	0.658800	0.709800	0.698500	0.101217
H2	H	0.638100	0.565200	0.771900	0.106331
H3	H	0.948500	0.568800	0.690500	0.106331
H4	H	0.973300	0.718500	0.621300	0.101217
H5	H	0.588000	0.376100	0.757800	0.106331
H6	H	0.553800	0.220500	0.822000	0.101217
H7	H	0.906000	0.333000	0.874300	0.101217
H8	H	0.941900	0.487300	0.808100	0.106331
H9	H	0.000600	0.226700	0.554200	0.101217
H10	H	0.088900	0.411100	0.563200	0.106331
H11	H	0.841200	0.430000	0.424200	0.106331
H12	H	0.748400	0.245400	0.418800	0.101217
H13	H	0.841200	0.290200	0.198500	0.101217
H14	H	0.861900	0.434800	0.271900	0.106331
H15	H	0.551500	0.431200	0.190500	0.106331
H16	H	0.526700	0.281500	0.121300	0.101217
H17	H	0.912000	0.623900	0.257800	0.106331
H18	H	0.946200	0.779500	0.322000	0.101217
H19	H	0.594000	0.667000	0.374300	0.101217
H20	H	0.558100	0.512700	0.308100	0.106331
H21	H	0.499400	0.773300	0.054200	0.101217
H22	H	0.411100	0.588900	0.063200	0.106331
H23	H	0.658800	0.570000	0.924200	0.106331
H24	H	0.751600	0.754600	0.918800	0.101217
H25	H	0.341200	0.290200	0.301500	0.101217
H26	H	0.361900	0.434800	0.228100	0.106331
H27	H	0.051500	0.431200	0.309500	0.106331
H28	H	0.026700	0.281500	0.378700	0.101217
H29	H	0.412000	0.623900	0.242200	0.106331
H30	H	0.446200	0.779500	0.178000	0.101217
H31	H	0.094000	0.667000	0.125700	0.101217
H32	H	0.058100	0.512700	0.191900	0.106331
H33	H	0.999400	0.773300	0.445800	0.101217
H34	H	0.911100	0.588900	0.436800	0.106331
H35	H	0.158800	0.570000	0.575800	0.106331
H36	H	0.251600	0.754600	0.581200	0.101217
H37	H	0.158800	0.709800	0.801500	0.101217
H38	H	0.138100	0.565200	0.728100	0.106331
H39	H	0.448500	0.568800	0.809500	0.106331
H40	H	0.473300	0.718500	0.878700	0.101217
H41	H	0.088000	0.376100	0.742200	0.106331
H42	H	0.053800	0.220500	0.678000	0.101217
H43	H	0.406000	0.333000	0.625700	0.101217
H44	H	0.441900	0.487300	0.691900	0.106331
H45	H	0.500600	0.226700	0.945800	0.101217
H46	H	0.588900	0.411100	0.936800	0.106331
H47	H	0.341200	0.430000	0.075800	0.106331
H48	H	0.248400	0.245400	0.081200	0.101217
C1	C	0.826990	0.818540	0.601490	0.768165
C2	C	0.817010	0.727540	0.651190	-0.136821
C3	C	0.717970	0.681530	0.696810	-0.028548
C4	C	0.704970	0.594370	0.740050	-0.143983
C5	C	0.788950	0.549300	0.737140	0.046969
C6	C	0.889300	0.597120	0.692410	-0.143983
C7	C	0.903660	0.686040	0.650520	-0.028548
C8	C	0.768510	0.449970	0.777710	0.046969
C9	C	0.652920	0.368140	0.781710	-0.143983
C10	C	0.632350	0.275340	0.820350	-0.028548
C11	C	0.725630	0.262130	0.856480	-0.136821
C12	C	0.841120	0.341800	0.851010	-0.028548
C13	C	0.862420	0.434260	0.811770	-0.143983
C14	C	0.701960	0.166650	0.904950	0.768165
C15	C	0.803350	0.099490	0.486590	0.768753
C16	C	0.864870	0.217640	0.486660	-0.152284
C17	C	0.966680	0.267790	0.528720	-0.027872
C18	C	0.019510	0.377970	0.533840	-0.143983
C19	C	0.972480	0.441050	0.496520	0.046969
C20	C	0.872490	0.389100	0.452170	-0.143983
C21	C	0.817880	0.278930	0.448020	-0.027872
C22	C	0.673010	0.181460	0.101490	0.768165
C23	C	0.682990	0.272460	0.151190	-0.136821
C24	C	0.782030	0.318470	0.196810	-0.028548
C25	C	0.795030	0.405630	0.240050	-0.143983
C26	C	0.711050	0.450700	0.237140	0.046969
C27	C	0.610700	0.402880	0.192410	-0.143983
C28	C	0.596340	0.313960	0.150520	-0.028548
C29	C	0.731490	0.550030	0.277710	0.046969
C30	C	0.847080	0.631860	0.281710	-0.143983
C31	C	0.867650	0.724660	0.320350	-0.028548
C32	C	0.774370	0.737870	0.356480	-0.136821
C33	C	0.658880	0.658200	0.351010	-0.028548
C34	C	0.637580	0.565740	0.311770	-0.143983
C35	C	0.798040	0.833350	0.404950	0.768165
C36	C	0.696650	0.900510	0.986590	0.768753
C37	C	0.635130	0.782360	0.986660	-0.152284
C38	C	0.533320	0.732210	0.028720	-0.027872
C39	C	0.480490	0.622030	0.033840	-0.143983
C40	C	0.527520	0.558950	0.996520	0.046969
C41	C	0.627510	0.610900	0.952170	-0.143983
C42	C	0.682120	0.721070	0.948020	-0.027872
C43	C	0.173010	0.181460	0.398510	0.768165
C44	C	0.182990	0.272460	0.348810	-0.136821
C45	C	0.282030	0.318470	0.303190	-0.028548
C46	C	0.295030	0.405630	0.259950	-0.143983
C47	C	0.211050	0.450700	0.262860	0.046969
C48	C	0.110700	0.402880	0.307590	-0.143983
C49	C	0.096340	0.313960	0.349480	-0.028548
C50	C	0.231490	0.550030	0.222290	0.046969
C51	C	0.347080	0.631860	0.218290	-0.143983
C52	C	0.367650	0.724660	0.179650	-0.028548
C53	C	0.274370	0.737870	0.143520	-0.136821
C54	C	0.158880	0.658200	0.148990	-0.028548
C55	C	0.137580	0.565740	0.188230	-0.143983
C56	C	0.298040	0.833350	0.095050	0.768165
C57	C	0.196650	0.900510	0.513410	0.768753
C58	C	0.135130	0.782360	0.513340	-0.152284
C59	C	0.033320	0.732210	0.471280	-0.027872
C60	C	0.980490	0.622030	0.466160	-0.143983
C61	C	0.027520	0.558950	0.503480	0.046969
C62	C	0.127510	0.610900	0.547830	-0.143983
C63	C	0.182120	0.721070	0.551980	-0.027872
C64	C	0.326990	0.818540	0.898510	0.768165
C65	C	0.317010	0.727540	0.848810	-0.136821
C66	C	0.217970	0.681530	0.803190	-0.028548
C67	C	0.204970	0.594370	0.759950	-0.143983
C68	C	0.288950	0.549300	0.762860	0.046969
C69	C	0.389300	0.597120	0.807590	-0.143983
C70	C	0.403660	0.686040	0.849480	-0.028548
C71	C	0.268510	0.449970	0.722290	0.046969
C72	C	0.152920	0.368140	0.718290	-0.143983
C73	C	0.132350	0.275340	0.679650	-0.028548
C74	C	0.225630	0.262130	0.643520	-0.136821
C75	C	0.341120	0.341800	0.648990	-0.028548
C76	C	0.362420	0.434260	0.688230	-0.143983
C77	C	0.201960	0.166650	0.595050	0.768165
C78	C	0.303350	0.099490	0.013410	0.768753
C79	C	0.364870	0.217640	0.013340	-0.152284
C80	C	0.466680	0.267790	0.971280	-0.027872
C81	C	0.519510	0.377970	0.966160	-0.143983
C82	C	0.472480	0.441050	0.003480	0.046969
C83	C	0.372490	0.389100	0.047830	-0.143983
C84	C	0.317880	0.278930	0.051980	-0.027872
O1	O	0.928450	0.876940	0.576840	-0.699387
O2	O	0.729600	0.826220	0.588450	-0.797602
O3	O	0.594180	0.106210	0.917310	-0.699387
O4	O	0.793110	0.157510	0.930000	-0.797602
O5	O	0.697540	0.055750	0.464140	-0.742970
O6	O	0.856290	0.045000	0.514470	-0.842420
O7	O	0.571550	0.123060	0.076840	-0.699387
O8	O	0.770400	0.173780	0.088450	-0.797602
O9	O	0.905820	0.893790	0.417310	-0.699387
O10	O	0.706890	0.842490	0.430000	-0.797602
O11	O	0.802460	0.944250	0.964140	-0.742970
O12	O	0.643710	0.955000	0.014470	-0.842420
O13	O	0.071550	0.123060	0.423160	-0.699387
O14	O	0.270400	0.173780	0.411550	-0.797602
O15	O	0.405820	0.893790	0.082690	-0.699387
O16	O	0.206890	0.842490	0.070000	-0.797602
O17	O	0.302460	0.944250	0.535860	-0.742970
O18	O	0.143710	0.955000	0.485530	-0.842420
O19	O	0.428450	0.876940	0.923160	-0.699387
O20	O	0.229600	0.826220	0.911550	-0.797602
O21	O	0.094180	0.106210	0.582690	-0.699387
O22	O	0.293110	0.157510	0.570000	-0.797602
O23	O	0.197540	0.055750	0.035860	-0.742970
O24	O	0.356290	0.045000	0.985530	-0.842420
