data_LAGBUS_clean_PM
_symmetry_space_group_name_H-M	'P1'
_cell_length_a	15.216900
_cell_length_b	15.216900
_cell_length_c	16.738000
_cell_angle_alpha	90.000000
_cell_angle_beta	90.000000
_cell_angle_gamma	120.000000
_symmetry_Int_Tables_number 1

loop_
_symmetry_equiv_pos_as_xyz
'x,y,z'

loop_
_atom_site_label
_atom_site_type_symbol
_atom_site_fract_x
_atom_site_fract_y
_atom_site_fract_z
_atom_site_charge
Fe1	Fe	0.333330	0.666660	0.317400	1.068196
Fe2	Fe	0.666670	0.333340	0.682600	1.068196
Ag1	Ag	0.759120	0.633050	0.778410	0.430760
Ag2	Ag	0.873930	0.240880	0.778410	0.430760
Ag3	Ag	0.366950	0.126070	0.778410	0.430760
Ag4	Ag	0.240880	0.366950	0.221590	0.430760
Ag5	Ag	0.126070	0.759120	0.221590	0.430760
Ag6	Ag	0.633050	0.873930	0.221590	0.430760
H1	H	0.019900	0.566200	0.285600	0.156248
H2	H	0.206700	0.519400	0.108500	0.108650
H3	H	0.933900	0.437500	0.203300	0.108650
H4	H	0.127100	0.429500	0.992600	0.110120
H5	H	0.855300	0.349900	0.088800	0.110120
H6	H	0.169900	0.650100	0.520500	0.108650
H7	H	0.948200	0.611500	0.371100	0.108650
H8	H	0.080200	0.662300	0.627900	0.110120
H9	H	0.853500	0.615500	0.478300	0.110120
H10	H	0.546300	0.980100	0.285600	0.156248
H11	H	0.312700	0.793300	0.108500	0.108650
H12	H	0.503600	0.066100	0.203300	0.108650
H13	H	0.302400	0.872900	0.992600	0.110120
H14	H	0.494600	0.144700	0.088800	0.110120
H15	H	0.480200	0.830100	0.520500	0.108650
H16	H	0.663300	0.051800	0.371100	0.108650
H17	H	0.582100	0.919800	0.627900	0.110120
H18	H	0.762000	0.146500	0.478300	0.110120
H19	H	0.433800	0.453700	0.285600	0.156248
H20	H	0.480600	0.687300	0.108500	0.108650
H21	H	0.562500	0.496400	0.203300	0.108650
H22	H	0.570500	0.697600	0.992600	0.110120
H23	H	0.650100	0.505400	0.088800	0.110120
H24	H	0.349900	0.519800	0.520500	0.108650
H25	H	0.388500	0.336700	0.371100	0.108650
H26	H	0.337700	0.417900	0.627900	0.110120
H27	H	0.384500	0.238000	0.478300	0.110120
H28	H	0.980100	0.433800	0.714400	0.156248
H29	H	0.793300	0.480600	0.891500	0.108650
H30	H	0.066100	0.562500	0.796700	0.108650
H31	H	0.872900	0.570500	0.007400	0.110120
H32	H	0.144700	0.650100	0.911200	0.110120
H33	H	0.830100	0.349900	0.479500	0.108650
H34	H	0.051800	0.388500	0.628900	0.108650
H35	H	0.919800	0.337700	0.372100	0.110120
H36	H	0.146500	0.384500	0.521700	0.110120
H37	H	0.453700	0.019900	0.714400	0.156248
H38	H	0.687300	0.206700	0.891500	0.108650
H39	H	0.496400	0.933900	0.796700	0.108650
H40	H	0.697600	0.127100	0.007400	0.110120
H41	H	0.505400	0.855300	0.911200	0.110120
H42	H	0.519800	0.169900	0.479500	0.108650
H43	H	0.336700	0.948200	0.628900	0.108650
H44	H	0.417900	0.080200	0.372100	0.110120
H45	H	0.238000	0.853500	0.521700	0.110120
H46	H	0.566200	0.546300	0.714400	0.156248
H47	H	0.519400	0.312700	0.891500	0.108650
H48	H	0.437500	0.503600	0.796700	0.108650
H49	H	0.429500	0.302400	0.007400	0.110120
H50	H	0.349900	0.494600	0.911200	0.110120
H51	H	0.650100	0.480200	0.479500	0.108650
H52	H	0.611500	0.663300	0.628900	0.108650
H53	H	0.662300	0.582100	0.372100	0.110120
H54	H	0.615500	0.762000	0.521700	0.110120
C1	C	0.127700	0.618100	0.370000	0.375365
C2	C	0.084000	0.575900	0.297000	-0.348035
C3	C	0.132900	0.546900	0.238600	0.375365
C4	C	0.079100	0.490100	0.166300	-0.055108
C5	C	0.136400	0.486100	0.104200	-0.071104
C6	C	0.972700	0.436900	0.160600	-0.071104
C7	C	0.089200	0.432300	0.035100	-0.069880
C8	C	0.925600	0.384200	0.093000	-0.069880
C9	C	0.984600	0.383000	0.031400	-0.065084
C10	C	0.935700	0.326600	0.958800	0.366631
C11	C	0.067200	0.626000	0.436300	-0.055108
C12	C	0.106400	0.643300	0.512100	-0.071104
C13	C	0.973300	0.619100	0.422900	-0.071104
C14	C	0.053000	0.650600	0.576700	-0.069880
C15	C	0.917600	0.623500	0.486400	-0.069880
C16	C	0.959400	0.640300	0.563000	-0.065084
C17	C	0.903100	0.648700	0.629100	0.366631
C18	C	0.490400	0.872300	0.370000	0.375365
C19	C	0.491900	0.916000	0.297000	-0.348035
C20	C	0.414000	0.867100	0.238600	0.375365
C21	C	0.411000	0.920900	0.166300	-0.055108
C22	C	0.349700	0.863600	0.104200	-0.071104
C23	C	0.464200	0.027300	0.160600	-0.071104
C24	C	0.343100	0.910800	0.035100	-0.069880
C25	C	0.458600	0.074400	0.093000	-0.069880
C26	C	0.398400	0.015400	0.031400	-0.065084
C27	C	0.390900	0.064300	0.958800	0.366631
C28	C	0.558800	0.932800	0.436300	-0.055108
C29	C	0.536900	0.893600	0.512100	-0.071104
C30	C	0.645800	0.026700	0.422900	-0.071104
C31	C	0.597600	0.947000	0.576700	-0.069880
C32	C	0.705900	0.082400	0.486400	-0.069880
C33	C	0.680900	0.040600	0.563000	-0.065084
C34	C	0.745600	0.096900	0.629100	0.366631
C35	C	0.381900	0.509600	0.370000	0.375365
C36	C	0.424100	0.508100	0.297000	-0.348035
C37	C	0.453100	0.586000	0.238600	0.375365
C38	C	0.509900	0.589000	0.166300	-0.055108
C39	C	0.513900	0.650300	0.104200	-0.071104
C40	C	0.563100	0.535800	0.160600	-0.071104
C41	C	0.567700	0.656900	0.035100	-0.069880
C42	C	0.615800	0.541400	0.093000	-0.069880
C43	C	0.617000	0.601600	0.031400	-0.065084
C44	C	0.673400	0.609100	0.958800	0.366631
C45	C	0.374000	0.441200	0.436300	-0.055108
C46	C	0.356700	0.463100	0.512100	-0.071104
C47	C	0.380900	0.354200	0.422900	-0.071104
C48	C	0.349400	0.402400	0.576700	-0.069880
C49	C	0.376500	0.294100	0.486400	-0.069880
C50	C	0.359700	0.319100	0.563000	-0.065084
C51	C	0.351300	0.254400	0.629100	0.366631
C52	C	0.872300	0.381900	0.630000	0.375365
C53	C	0.916000	0.424100	0.703000	-0.348035
C54	C	0.867100	0.453100	0.761400	0.375365
C55	C	0.920900	0.509900	0.833700	-0.055108
C56	C	0.863600	0.513900	0.895800	-0.071104
C57	C	0.027300	0.563100	0.839400	-0.071104
C58	C	0.910800	0.567700	0.964900	-0.069880
C59	C	0.074400	0.615800	0.907000	-0.069880
C60	C	0.015400	0.617000	0.968600	-0.065084
C61	C	0.064300	0.673400	0.041200	0.366631
C62	C	0.932800	0.374000	0.563700	-0.055108
C63	C	0.893600	0.356700	0.487900	-0.071104
C64	C	0.026700	0.380900	0.577100	-0.071104
C65	C	0.947000	0.349400	0.423300	-0.069880
C66	C	0.082400	0.376500	0.513600	-0.069880
C67	C	0.040600	0.359700	0.437000	-0.065084
C68	C	0.096900	0.351300	0.370900	0.366631
C69	C	0.509600	0.127700	0.630000	0.375365
C70	C	0.508100	0.084000	0.703000	-0.348035
C71	C	0.586000	0.132900	0.761400	0.375365
C72	C	0.589000	0.079100	0.833700	-0.055108
C73	C	0.650300	0.136400	0.895800	-0.071104
C74	C	0.535800	0.972700	0.839400	-0.071104
C75	C	0.656900	0.089200	0.964900	-0.069880
C76	C	0.541400	0.925600	0.907000	-0.069880
C77	C	0.601600	0.984600	0.968600	-0.065084
C78	C	0.609100	0.935700	0.041200	0.366631
C79	C	0.441200	0.067200	0.563700	-0.055108
C80	C	0.463100	0.106400	0.487900	-0.071104
C81	C	0.354200	0.973300	0.577100	-0.071104
C82	C	0.402400	0.053000	0.423300	-0.069880
C83	C	0.294100	0.917600	0.513600	-0.069880
C84	C	0.319100	0.959400	0.437000	-0.065084
C85	C	0.254400	0.903100	0.370900	0.366631
C86	C	0.618100	0.490400	0.630000	0.375365
C87	C	0.575900	0.491900	0.703000	-0.348035
C88	C	0.546900	0.414000	0.761400	0.375365
C89	C	0.490100	0.411000	0.833700	-0.055108
C90	C	0.486100	0.349700	0.895800	-0.071104
C91	C	0.436900	0.464200	0.839400	-0.071104
C92	C	0.432300	0.343100	0.964900	-0.069880
C93	C	0.384200	0.458600	0.907000	-0.069880
C94	C	0.383000	0.398400	0.968600	-0.065084
C95	C	0.326600	0.390900	0.041200	0.366631
C96	C	0.626000	0.558800	0.563700	-0.055108
C97	C	0.643300	0.536900	0.487900	-0.071104
C98	C	0.619100	0.645800	0.577100	-0.071104
C99	C	0.650600	0.597600	0.423300	-0.069880
C100	C	0.623500	0.705900	0.513600	-0.069880
C101	C	0.640300	0.680900	0.437000	-0.065084
C102	C	0.648700	0.745600	0.370900	0.366631
N1	N	0.857100	0.652200	0.682200	-0.608649
N2	N	0.897600	0.284600	0.901600	-0.608649
N3	N	0.795100	0.142900	0.682200	-0.608649
N4	N	0.387000	0.102400	0.901600	-0.608649
N5	N	0.347800	0.204900	0.682200	-0.608649
N6	N	0.715400	0.613000	0.901600	-0.608649
N7	N	0.142900	0.347800	0.317800	-0.608649
N8	N	0.102400	0.715400	0.098400	-0.608649
N9	N	0.204900	0.857100	0.317800	-0.608649
N10	N	0.613000	0.897600	0.098400	-0.608649
N11	N	0.652200	0.795100	0.317800	-0.608649
N12	N	0.284600	0.387000	0.098400	-0.608649
O1	O	0.220500	0.650100	0.386800	-0.466247
O2	O	0.224400	0.567000	0.245300	-0.466247
O3	O	0.429600	0.779500	0.386800	-0.466247
O4	O	0.342600	0.775600	0.245300	-0.466247
O5	O	0.349900	0.570400	0.386800	-0.466247
O6	O	0.433000	0.657400	0.245300	-0.466247
O7	O	0.779500	0.349900	0.613200	-0.466247
O8	O	0.775600	0.433000	0.754700	-0.466247
O9	O	0.570400	0.220500	0.613200	-0.466247
O10	O	0.657400	0.224400	0.754700	-0.466247
O11	O	0.650100	0.429600	0.613200	-0.466247
O12	O	0.567000	0.342600	0.754700	-0.466247
