data_LAGCED_clean_PM
_symmetry_space_group_name_H-M	'P1'
_cell_length_a	15.733000
_cell_length_b	15.733000
_cell_length_c	16.486000
_cell_angle_alpha	90.000000
_cell_angle_beta	90.000000
_cell_angle_gamma	119.999999
_symmetry_Int_Tables_number 1

loop_
_symmetry_equiv_pos_as_xyz
'x,y,z'

loop_
_atom_site_label
_atom_site_type_symbol
_atom_site_fract_x
_atom_site_fract_y
_atom_site_fract_z
_atom_site_charge
Zn1	Zn	0.333330	0.666660	0.823300	0.984402
Zn2	Zn	0.666670	0.333340	0.176700	0.984402
Ag1	Ag	0.859800	0.268170	0.268080	0.564355
Ag2	Ag	0.408370	0.140200	0.268080	0.564355
Ag3	Ag	0.731830	0.591630	0.268080	0.564355
Ag4	Ag	0.140200	0.731830	0.731920	0.564355
Ag5	Ag	0.591630	0.859800	0.731920	0.564355
Ag6	Ag	0.268170	0.408370	0.731920	0.564355
H1	H	0.034200	0.566600	0.781900	0.174187
H2	H	0.168400	0.668100	0.024000	0.101271
H3	H	0.939700	0.569400	0.874700	0.101271
H4	H	0.074400	0.674400	0.127000	0.102721
H5	H	0.848900	0.584900	0.975800	0.102721
H6	H	0.207900	0.530500	0.597800	0.101271
H7	H	0.947900	0.420400	0.711600	0.101271
H8	H	0.128600	0.449700	0.480400	0.102721
H9	H	0.870100	0.334500	0.594000	0.102721
H10	H	0.532400	0.965800	0.781900	0.174187
H11	H	0.499700	0.831600	0.024000	0.101271
H12	H	0.629700	0.060300	0.874700	0.101271
H13	H	0.600000	0.925600	0.127000	0.102721
H14	H	0.736000	0.151100	0.975800	0.102721
H15	H	0.322600	0.792100	0.597800	0.101271
H16	H	0.472500	0.052100	0.711600	0.101271
H17	H	0.321100	0.871400	0.480400	0.102721
H18	H	0.464400	0.129900	0.594000	0.102721
H19	H	0.433400	0.467600	0.781900	0.174187
H20	H	0.331900	0.500300	0.024000	0.101271
H21	H	0.430600	0.370300	0.874700	0.101271
H22	H	0.325600	0.400000	0.127000	0.102721
H23	H	0.415100	0.264000	0.975800	0.102721
H24	H	0.469500	0.677400	0.597800	0.101271
H25	H	0.579600	0.527500	0.711600	0.101271
H26	H	0.550300	0.678900	0.480400	0.102721
H27	H	0.665500	0.535600	0.594000	0.102721
H28	H	0.965800	0.433400	0.218100	0.174187
H29	H	0.831600	0.331900	0.976000	0.101271
H30	H	0.060300	0.430600	0.125300	0.101271
H31	H	0.925600	0.325600	0.873000	0.102721
H32	H	0.151100	0.415100	0.024200	0.102721
H33	H	0.792100	0.469500	0.402200	0.101271
H34	H	0.052100	0.579600	0.288400	0.101271
H35	H	0.871400	0.550300	0.519600	0.102721
H36	H	0.129900	0.665500	0.406000	0.102721
H37	H	0.467600	0.034200	0.218100	0.174187
H38	H	0.500300	0.168400	0.976000	0.101271
H39	H	0.370300	0.939700	0.125300	0.101271
H40	H	0.400000	0.074400	0.873000	0.102721
H41	H	0.264000	0.848900	0.024200	0.102721
H42	H	0.677400	0.207900	0.402200	0.101271
H43	H	0.527500	0.947900	0.288400	0.101271
H44	H	0.678900	0.128600	0.519600	0.102721
H45	H	0.535600	0.870100	0.406000	0.102721
H46	H	0.566600	0.532400	0.218100	0.174187
H47	H	0.668100	0.499700	0.976000	0.101271
H48	H	0.569400	0.629700	0.125300	0.101271
H49	H	0.674400	0.600000	0.873000	0.102721
H50	H	0.584900	0.736000	0.024200	0.102721
H51	H	0.530500	0.322600	0.402200	0.101271
H52	H	0.420400	0.472500	0.288400	0.101271
H53	H	0.449700	0.321100	0.519600	0.102721
H54	H	0.334500	0.464400	0.406000	0.102721
C1	C	0.141000	0.542700	0.741500	0.397111
C2	C	0.094000	0.572800	0.797000	-0.472913
C3	C	0.131700	0.612300	0.874900	0.397111
C4	C	0.066300	0.619100	0.937300	-0.095858
C5	C	0.103500	0.650400	0.013700	-0.068459
C6	C	0.968400	0.593200	0.925100	-0.068459
C7	C	0.048300	0.656300	0.075100	-0.083991
C8	C	0.913700	0.602000	0.985700	-0.083991
C9	C	0.953000	0.635000	0.059200	-0.083269
C10	C	0.895200	0.640400	0.122800	0.356019
C11	C	0.086400	0.484600	0.666500	-0.095858
C12	C	0.139800	0.492100	0.597000	-0.068459
C13	C	0.984500	0.425800	0.665600	-0.068459
C14	C	0.092900	0.443400	0.527200	-0.083991
C15	C	0.938000	0.375100	0.594900	-0.083991
C16	C	0.991000	0.384500	0.527600	-0.083269
C17	C	0.940800	0.333400	0.453900	0.356019
C18	C	0.401700	0.859000	0.741500	0.397111
C19	C	0.478800	0.906000	0.797000	-0.472913
C20	C	0.480600	0.868300	0.874900	0.397111
C21	C	0.552800	0.933700	0.937300	-0.095858
C22	C	0.546900	0.896500	0.013700	-0.068459
C23	C	0.624800	0.031600	0.925100	-0.068459
C24	C	0.608000	0.951700	0.075100	-0.083991
C25	C	0.688300	0.086300	0.985700	-0.083991
C26	C	0.682000	0.047000	0.059200	-0.083269
C27	C	0.745200	0.104800	0.122800	0.356019
C28	C	0.398200	0.913600	0.666500	-0.095858
C29	C	0.352300	0.860200	0.597000	-0.068459
C30	C	0.441300	0.015500	0.665600	-0.068459
C31	C	0.350500	0.907100	0.527200	-0.083991
C32	C	0.437100	0.062000	0.594900	-0.083991
C33	C	0.393500	0.009000	0.527600	-0.083269
C34	C	0.392600	0.059200	0.453900	0.356019
C35	C	0.457300	0.598300	0.741500	0.397111
C36	C	0.427200	0.521200	0.797000	-0.472913
C37	C	0.387700	0.519400	0.874900	0.397111
C38	C	0.380900	0.447200	0.937300	-0.095858
C39	C	0.349600	0.453100	0.013700	-0.068459
C40	C	0.406800	0.375200	0.925100	-0.068459
C41	C	0.343700	0.392000	0.075100	-0.083991
C42	C	0.398000	0.311700	0.985700	-0.083991
C43	C	0.365000	0.318000	0.059200	-0.083269
C44	C	0.359600	0.254800	0.122800	0.356019
C45	C	0.515400	0.601800	0.666500	-0.095858
C46	C	0.507900	0.647700	0.597000	-0.068459
C47	C	0.574200	0.558700	0.665600	-0.068459
C48	C	0.556600	0.649500	0.527200	-0.083991
C49	C	0.624900	0.562900	0.594900	-0.083991
C50	C	0.615500	0.606500	0.527600	-0.083269
C51	C	0.666600	0.607400	0.453900	0.356019
C52	C	0.859000	0.457300	0.258500	0.397111
C53	C	0.906000	0.427200	0.203000	-0.472913
C54	C	0.868300	0.387700	0.125100	0.397111
C55	C	0.933700	0.380900	0.062700	-0.095858
C56	C	0.896500	0.349600	0.986300	-0.068459
C57	C	0.031600	0.406800	0.074900	-0.068459
C58	C	0.951700	0.343700	0.924900	-0.083991
C59	C	0.086300	0.398000	0.014300	-0.083991
C60	C	0.047000	0.365000	0.940800	-0.083269
C61	C	0.104800	0.359600	0.877200	0.356019
C62	C	0.913600	0.515400	0.333500	-0.095858
C63	C	0.860200	0.507900	0.403000	-0.068459
C64	C	0.015500	0.574200	0.334400	-0.068459
C65	C	0.907100	0.556600	0.472800	-0.083991
C66	C	0.062000	0.624900	0.405100	-0.083991
C67	C	0.009000	0.615500	0.472400	-0.083269
C68	C	0.059200	0.666600	0.546100	0.356019
C69	C	0.598300	0.141000	0.258500	0.397111
C70	C	0.521200	0.094000	0.203000	-0.472913
C71	C	0.519400	0.131700	0.125100	0.397111
C72	C	0.447200	0.066300	0.062700	-0.095858
C73	C	0.453100	0.103500	0.986300	-0.068459
C74	C	0.375200	0.968400	0.074900	-0.068459
C75	C	0.392000	0.048300	0.924900	-0.083991
C76	C	0.311700	0.913700	0.014300	-0.083991
C77	C	0.318000	0.953000	0.940800	-0.083269
C78	C	0.254800	0.895200	0.877200	0.356019
C79	C	0.601800	0.086400	0.333500	-0.095858
C80	C	0.647700	0.139800	0.403000	-0.068459
C81	C	0.558700	0.984500	0.334400	-0.068459
C82	C	0.649500	0.092900	0.472800	-0.083991
C83	C	0.562900	0.938000	0.405100	-0.083991
C84	C	0.606500	0.991000	0.472400	-0.083269
C85	C	0.607400	0.940800	0.546100	0.356019
C86	C	0.542700	0.401700	0.258500	0.397111
C87	C	0.572800	0.478800	0.203000	-0.472913
C88	C	0.612300	0.480600	0.125100	0.397111
C89	C	0.619100	0.552800	0.062700	-0.095858
C90	C	0.650400	0.546900	0.986300	-0.068459
C91	C	0.593200	0.624800	0.074900	-0.068459
C92	C	0.656300	0.608000	0.924900	-0.083991
C93	C	0.602000	0.688300	0.014300	-0.083991
C94	C	0.635000	0.682000	0.940800	-0.083269
C95	C	0.640400	0.745200	0.877200	0.356019
C96	C	0.484600	0.398200	0.333500	-0.095858
C97	C	0.492100	0.352300	0.403000	-0.068459
C98	C	0.425800	0.441300	0.334400	-0.068459
C99	C	0.443400	0.350500	0.472800	-0.083991
C100	C	0.375100	0.437100	0.405100	-0.083991
C101	C	0.384500	0.393500	0.472400	-0.083269
C102	C	0.333400	0.392600	0.546100	0.356019
N1	N	0.901400	0.294700	0.396300	-0.450286
N2	N	0.847500	0.646400	0.175500	-0.450286
N3	N	0.393300	0.098600	0.396300	-0.450286
N4	N	0.798900	0.152500	0.175500	-0.450286
N5	N	0.705300	0.606700	0.396300	-0.450286
N6	N	0.353600	0.201100	0.175500	-0.450286
N7	N	0.098600	0.705300	0.603700	-0.450286
N8	N	0.152500	0.353600	0.824500	-0.450286
N9	N	0.606700	0.901400	0.603700	-0.450286
N10	N	0.201100	0.847500	0.824500	-0.450286
N11	N	0.294700	0.393300	0.603700	-0.450286
N12	N	0.646400	0.798900	0.824500	-0.450286
O1	O	0.229100	0.560000	0.746810	-0.523683
O2	O	0.217400	0.641200	0.896700	-0.523683
O3	O	0.330900	0.770900	0.746810	-0.523683
O4	O	0.423800	0.782600	0.896700	-0.523683
O5	O	0.440000	0.669100	0.746810	-0.523683
O6	O	0.358800	0.576200	0.896700	-0.523683
O7	O	0.770900	0.440000	0.253190	-0.523683
O8	O	0.782600	0.358800	0.103300	-0.523683
O9	O	0.669100	0.229100	0.253190	-0.523683
O10	O	0.576200	0.217400	0.103300	-0.523683
O11	O	0.560000	0.330900	0.253190	-0.523683
O12	O	0.641200	0.423800	0.103300	-0.523683
