data_LAGRES_clean_PM
_symmetry_space_group_name_H-M	'P1'
_cell_length_a	8.577600
_cell_length_b	10.195000
_cell_length_c	10.911500
_cell_angle_alpha	66.671998
_cell_angle_beta	69.425001
_cell_angle_gamma	78.113002
_symmetry_Int_Tables_number 1

loop_
_symmetry_equiv_pos_as_xyz
'x,y,z'

loop_
_atom_site_label
_atom_site_type_symbol
_atom_site_fract_x
_atom_site_fract_y
_atom_site_fract_z
_atom_site_charge
Er1	Er	0.346670	0.566060	0.846580	1.495375
Er2	Er	0.653330	0.433940	0.153420	1.495375
H1	H	0.795000	0.371300	0.515000	0.112095
H2	H	0.935100	0.658600	0.616600	0.112095
H3	H	0.288700	0.178400	0.022100	0.112095
H4	H	0.764400	0.028000	0.995000	0.112095
H5	H	0.853300	0.876400	0.726300	0.112095
H6	H	0.285800	0.949200	0.418400	0.112095
H7	H	0.205000	0.628700	0.485000	0.112095
H8	H	0.064900	0.341400	0.383400	0.112095
H9	H	0.711300	0.821600	0.977900	0.112095
H10	H	0.235600	0.972000	0.005000	0.112095
H11	H	0.146700	0.123600	0.273700	0.112095
H12	H	0.714200	0.050800	0.581600	0.112095
C1	C	0.662200	0.540100	0.667000	0.700873
C2	C	0.837500	0.518200	0.581000	-0.109669
C3	C	0.877100	0.422400	0.509100	-0.049862
C4	C	0.962200	0.594500	0.569500	-0.049862
C5	C	0.563900	0.255700	0.020300	0.700873
C6	C	0.530100	0.124000	0.007400	-0.109669
C7	C	0.374000	0.106900	0.012600	-0.049862
C8	C	0.658700	0.017100	0.996400	-0.049862
C9	C	0.171700	0.780000	0.684300	0.700873
C10	C	0.082400	0.894100	0.590000	-0.109669
C11	C	0.913200	0.926300	0.634800	-0.049862
C12	C	0.171200	0.969300	0.451800	-0.049862
C13	C	0.337800	0.459900	0.333000	0.700873
C14	C	0.162500	0.481800	0.419000	-0.109669
C15	C	0.122900	0.577600	0.490900	-0.049862
C16	C	0.037800	0.405500	0.430500	-0.049862
C17	C	0.436100	0.744300	0.979700	0.700873
C18	C	0.469900	0.876000	0.992600	-0.109669
C19	C	0.626000	0.893100	0.987400	-0.049862
C20	C	0.341300	0.982900	0.003600	-0.049862
C21	C	0.828300	0.220000	0.315700	0.700873
C22	C	0.917600	0.105900	0.410000	-0.109669
C23	C	0.086800	0.073700	0.365200	-0.049862
C24	C	0.828800	0.030700	0.548200	-0.049862
O1	O	0.631600	0.619200	0.739600	-0.607064
O2	O	0.547100	0.480100	0.669700	-0.607064
O3	O	0.479800	0.370500	0.976300	-0.607064
O4	O	0.668600	0.245100	0.079400	-0.607064
O5	O	0.326900	0.750300	0.636400	-0.607064
O6	O	0.090800	0.711000	0.809000	-0.607064
O7	O	0.368400	0.380800	0.260400	-0.607064
O8	O	0.452900	0.519900	0.330300	-0.607064
O9	O	0.520200	0.629500	0.023700	-0.607064
O10	O	0.331400	0.754900	0.920600	-0.607064
O11	O	0.673100	0.249700	0.363600	-0.607064
O12	O	0.909200	0.289000	0.191000	-0.607064
