data_LAGRIW_clean_PM
_symmetry_space_group_name_H-M	'P1'
_cell_length_a	8.567900
_cell_length_b	10.186800
_cell_length_c	10.872400
_cell_angle_alpha	66.791000
_cell_angle_beta	69.315998
_cell_angle_gamma	78.245998
_symmetry_Int_Tables_number 1

loop_
_symmetry_equiv_pos_as_xyz
'x,y,z'

loop_
_atom_site_label
_atom_site_type_symbol
_atom_site_fract_x
_atom_site_fract_y
_atom_site_fract_z
_atom_site_charge
Yb1	Yb	0.345630	0.566980	0.843610	1.435258
Yb2	Yb	0.654370	0.433020	0.156390	1.435258
H1	H	0.794800	0.373100	0.514600	0.112238
H2	H	0.933300	0.659400	0.616900	0.112238
H3	H	0.285900	0.176500	0.016500	0.112238
H4	H	0.759200	0.031100	0.998600	0.112238
H5	H	0.853500	0.877200	0.728600	0.112238
H6	H	0.286400	0.953800	0.418300	0.112238
H7	H	0.205200	0.626900	0.485400	0.112238
H8	H	0.066700	0.340600	0.383100	0.112238
H9	H	0.714100	0.823500	0.983500	0.112238
H10	H	0.240800	0.968900	0.001400	0.112238
H11	H	0.146500	0.122800	0.271400	0.112238
H12	H	0.713600	0.046200	0.581700	0.112238
C1	C	0.660800	0.539600	0.667300	0.714772
C2	C	0.836100	0.518200	0.581800	-0.109012
C3	C	0.877200	0.423800	0.509300	-0.047359
C4	C	0.960200	0.594700	0.570200	-0.047359
C5	C	0.555800	0.260000	0.018100	0.714772
C6	C	0.527300	0.126500	0.007400	-0.109012
C7	C	0.372900	0.105800	0.009500	-0.047359
C8	C	0.654400	0.019100	0.998800	-0.047359
C9	C	0.171800	0.779300	0.685700	0.714772
C10	C	0.083200	0.896000	0.589000	-0.109012
C11	C	0.912800	0.926400	0.636200	-0.047359
C12	C	0.171200	0.971800	0.451200	-0.047359
C13	C	0.339200	0.460400	0.332700	0.714772
C14	C	0.163900	0.481800	0.418200	-0.109012
C15	C	0.122800	0.576200	0.490700	-0.047359
C16	C	0.039800	0.405300	0.429800	-0.047359
C17	C	0.444200	0.740000	0.981900	0.714772
C18	C	0.472700	0.873500	0.992600	-0.109012
C19	C	0.627100	0.894200	0.990500	-0.047359
C20	C	0.345600	0.980900	0.001200	-0.047359
C21	C	0.828200	0.220700	0.314300	0.714772
C22	C	0.916800	0.104000	0.411000	-0.109012
C23	C	0.087200	0.073600	0.363800	-0.047359
C24	C	0.828800	0.028200	0.548800	-0.047359
O1	O	0.629800	0.617900	0.741700	-0.606968
O2	O	0.545600	0.481500	0.667200	-0.606968
O3	O	0.470300	0.372900	0.971900	-0.606968
O4	O	0.658500	0.252500	0.078500	-0.606968
O5	O	0.326500	0.751400	0.635700	-0.606968
O6	O	0.092700	0.713800	0.809200	-0.606968
O7	O	0.370200	0.382100	0.258300	-0.606968
O8	O	0.454400	0.518500	0.332800	-0.606968
O9	O	0.529700	0.627100	0.028100	-0.606968
O10	O	0.341500	0.747500	0.921500	-0.606968
O11	O	0.673500	0.248600	0.364300	-0.606968
O12	O	0.907300	0.286200	0.190800	-0.606968
