data_LAGVOG_clean_PM
_symmetry_space_group_name_H-M	'P1'
_cell_length_a	9.652000
_cell_length_b	14.067000
_cell_length_c	16.212000
_cell_angle_alpha	90.000000
_cell_angle_beta	90.000000
_cell_angle_gamma	106.579998
_symmetry_Int_Tables_number 1

loop_
_symmetry_equiv_pos_as_xyz
'x,y,z'

loop_
_atom_site_label
_atom_site_type_symbol
_atom_site_fract_x
_atom_site_fract_y
_atom_site_fract_z
_atom_site_charge
Y1	Y	0.826910	0.552580	0.017480	2.108004
Y2	Y	0.673090	0.947420	0.517480	2.108004
Y3	Y	0.173090	0.447420	0.982520	2.108004
Y4	Y	0.326910	0.052580	0.482520	2.108004
H1	H	0.297200	0.633900	0.806000	0.107503
H2	H	0.413900	0.729000	0.700900	0.107503
H3	H	0.107500	0.869000	0.690400	0.107503
H4	H	0.994700	0.778800	0.799900	0.107503
H5	H	0.202800	0.866100	0.306000	0.107503
H6	H	0.086100	0.771000	0.200900	0.107503
H7	H	0.392500	0.631000	0.190400	0.107503
H8	H	0.505300	0.721200	0.299900	0.107503
H9	H	0.702800	0.366100	0.194000	0.107503
H10	H	0.586100	0.271000	0.299100	0.107503
H11	H	0.892500	0.131000	0.309600	0.107503
H12	H	0.005300	0.221200	0.200100	0.107503
H13	H	0.797200	0.133900	0.694000	0.107503
H14	H	0.913900	0.229000	0.799100	0.107503
H15	H	0.607500	0.369000	0.809600	0.107503
H16	H	0.494700	0.278800	0.700100	0.107503
C1	C	0.135500	0.696500	0.815200	-0.145113
C2	C	0.260000	0.682600	0.783800	-0.045586
C3	C	0.329000	0.738800	0.721200	-0.045586
C4	C	0.276000	0.811500	0.685900	-0.145113
C5	C	0.147000	0.823200	0.715200	-0.045586
C6	C	0.079000	0.768700	0.779300	-0.045586
C7	C	0.055000	0.633100	0.889600	0.782977
C8	C	0.350000	0.876100	0.613600	0.782977
C9	C	0.508800	0.534600	0.963300	0.550424
C10	C	0.364500	0.803500	0.315200	-0.145113
C11	C	0.240000	0.817400	0.283800	-0.045586
C12	C	0.171000	0.761200	0.221200	-0.045586
C13	C	0.224000	0.688500	0.185900	-0.145113
C14	C	0.353000	0.676800	0.215200	-0.045586
C15	C	0.421000	0.731300	0.279300	-0.045586
C16	C	0.445000	0.866900	0.389600	0.782977
C17	C	0.150000	0.623900	0.113600	0.782977
C18	C	0.991200	0.965400	0.463300	0.550424
C19	C	0.864500	0.303500	0.184800	-0.145113
C20	C	0.740000	0.317400	0.216200	-0.045586
C21	C	0.671000	0.261200	0.278800	-0.045586
C22	C	0.724000	0.188500	0.314100	-0.145113
C23	C	0.853000	0.176800	0.284800	-0.045586
C24	C	0.921000	0.231300	0.220700	-0.045586
C25	C	0.945000	0.366900	0.110400	0.782977
C26	C	0.650000	0.123900	0.386400	0.782977
C27	C	0.491200	0.465400	0.036700	0.550424
C28	C	0.635500	0.196500	0.684800	-0.145113
C29	C	0.760000	0.182600	0.716200	-0.045586
C30	C	0.829000	0.238800	0.778800	-0.045586
C31	C	0.776000	0.311500	0.814100	-0.145113
C32	C	0.647000	0.323200	0.784800	-0.045586
C33	C	0.579000	0.268700	0.720700	-0.045586
C34	C	0.555000	0.133100	0.610400	0.782977
C35	C	0.850000	0.376100	0.886400	0.782977
C36	C	0.008800	0.034600	0.536700	0.550424
O1	O	0.946500	0.657700	0.914400	-0.720362
O2	O	0.104300	0.568600	0.914500	-0.720362
O3	O	0.293400	0.934400	0.583600	-0.720362
O4	O	0.473200	0.861900	0.592300	-0.720362
O5	O	0.393900	0.544700	0.930500	-0.650188
O6	O	0.634400	0.578100	0.940200	-0.650188
O7	O	0.553500	0.842300	0.414400	-0.720362
O8	O	0.395700	0.931400	0.414500	-0.720362
O9	O	0.206600	0.565600	0.083600	-0.720362
O10	O	0.026800	0.638100	0.092300	-0.720362
O11	O	0.106100	0.955300	0.430500	-0.650188
O12	O	0.865600	0.921900	0.440200	-0.650188
O13	O	0.053500	0.342300	0.085600	-0.720362
O14	O	0.895700	0.431400	0.085500	-0.720362
O15	O	0.706600	0.065600	0.416400	-0.720362
O16	O	0.526800	0.138100	0.407700	-0.720362
O17	O	0.606100	0.455300	0.069500	-0.650188
O18	O	0.365600	0.421900	0.059800	-0.650188
O19	O	0.446500	0.157700	0.585600	-0.720362
O20	O	0.604300	0.068600	0.585500	-0.720362
O21	O	0.793400	0.434400	0.916400	-0.720362
O22	O	0.973200	0.361900	0.907700	-0.720362
O23	O	0.893900	0.044700	0.569500	-0.650188
O24	O	0.134400	0.078100	0.559800	-0.650188
