data_LAVTUZ_clean_PM
_symmetry_space_group_name_H-M	'P1'
_cell_length_a	10.240000
_cell_length_b	10.240000
_cell_length_c	14.420000
_cell_angle_alpha	90.000000
_cell_angle_beta	90.000000
_cell_angle_gamma	90.000000
_symmetry_Int_Tables_number 1

loop_
_symmetry_equiv_pos_as_xyz
'x,y,z'

loop_
_atom_site_label
_atom_site_type_symbol
_atom_site_fract_x
_atom_site_fract_y
_atom_site_fract_z
_atom_site_charge
Yb1	Yb	0.352150	0.647850	0.875000	1.436955
Yb2	Yb	0.647850	0.352150	0.375000	1.436955
Yb3	Yb	0.352150	0.352150	0.625000	1.436955
Yb4	Yb	0.647850	0.647850	0.125000	1.436955
H1	H	0.425100	0.059000	0.870900	0.115598
H2	H	0.574900	0.941000	0.370900	0.115598
H3	H	0.941000	0.425100	0.620900	0.115598
H4	H	0.059000	0.574900	0.120900	0.115598
H5	H	0.574900	0.059000	0.129100	0.115598
H6	H	0.425100	0.941000	0.629100	0.115598
H7	H	0.059000	0.425100	0.379100	0.115598
H8	H	0.941000	0.574900	0.879100	0.115598
H9	H	0.500000	0.398900	0.000000	0.115598
H10	H	0.500000	0.601100	0.500000	0.115598
H11	H	0.601100	0.500000	0.750000	0.115598
H12	H	0.398900	0.500000	0.250000	0.115598
C1	C	0.411000	0.317800	0.839000	0.717152
C2	C	0.455400	0.104200	0.922500	0.038033
C3	C	0.456500	0.239800	0.922600	-0.149549
C4	C	0.589000	0.682200	0.339000	0.717152
C5	C	0.544600	0.895800	0.422500	0.038033
C6	C	0.543500	0.760200	0.422600	-0.149549
C7	C	0.682200	0.411000	0.589000	0.717152
C8	C	0.895800	0.455400	0.672500	0.038033
C9	C	0.760200	0.456500	0.672600	-0.149549
C10	C	0.317800	0.589000	0.089000	0.717152
C11	C	0.104200	0.544600	0.172500	0.038033
C12	C	0.239800	0.543500	0.172600	-0.149549
C13	C	0.589000	0.317800	0.161000	0.717152
C14	C	0.544600	0.104200	0.077500	0.038033
C15	C	0.543500	0.239800	0.077400	-0.149549
C16	C	0.411000	0.682200	0.661000	0.717152
C17	C	0.455400	0.895800	0.577500	0.038033
C18	C	0.456500	0.760200	0.577400	-0.149549
C19	C	0.317800	0.411000	0.411000	0.717152
C20	C	0.104200	0.455400	0.327500	0.038033
C21	C	0.239800	0.456500	0.327400	-0.149549
C22	C	0.682200	0.589000	0.911000	0.717152
C23	C	0.895800	0.544600	0.827500	0.038033
C24	C	0.760200	0.543500	0.827400	-0.149549
C25	C	0.500000	0.888400	0.000000	0.717152
C26	C	0.500000	0.035700	0.000000	-0.149549
C27	C	0.500000	0.308100	0.000000	0.038033
C28	C	0.500000	0.111600	0.500000	0.717152
C29	C	0.500000	0.964300	0.500000	-0.149549
C30	C	0.500000	0.691900	0.500000	0.038033
C31	C	0.111600	0.500000	0.750000	0.717152
C32	C	0.964300	0.500000	0.750000	-0.149549
C33	C	0.691900	0.500000	0.750000	0.038033
C34	C	0.888400	0.500000	0.250000	0.717152
C35	C	0.035700	0.500000	0.250000	-0.149549
C36	C	0.308100	0.500000	0.250000	0.038033
O1	O	0.426100	0.834000	0.941400	-0.600110
O2	O	0.387600	0.433800	0.850200	-0.600110
O3	O	0.404900	0.259800	0.762400	-0.600110
O4	O	0.573900	0.166000	0.441400	-0.600110
O5	O	0.612400	0.566200	0.350200	-0.600110
O6	O	0.595100	0.740200	0.262400	-0.600110
O7	O	0.166000	0.426100	0.691400	-0.600110
O8	O	0.566200	0.387600	0.600200	-0.600110
O9	O	0.740200	0.404900	0.512400	-0.600110
O10	O	0.834000	0.573900	0.191400	-0.600110
O11	O	0.433800	0.612400	0.100200	-0.600110
O12	O	0.259800	0.595100	0.012400	-0.600110
O13	O	0.573900	0.834000	0.058600	-0.600110
O14	O	0.612400	0.433800	0.149800	-0.600110
O15	O	0.595100	0.259800	0.237600	-0.600110
O16	O	0.426100	0.166000	0.558600	-0.600110
O17	O	0.387600	0.566200	0.649800	-0.600110
O18	O	0.404900	0.740200	0.737600	-0.600110
O19	O	0.834000	0.426100	0.308600	-0.600110
O20	O	0.433800	0.387600	0.399800	-0.600110
O21	O	0.259800	0.404900	0.487600	-0.600110
O22	O	0.166000	0.573900	0.808600	-0.600110
O23	O	0.566200	0.612400	0.899800	-0.600110
O24	O	0.740200	0.595100	0.987600	-0.600110
