data_LECGEH_clean_PM
_symmetry_space_group_name_H-M	'P1'
_cell_length_a	8.023100
_cell_length_b	9.530400
_cell_length_c	15.471400
_cell_angle_alpha	96.709002
_cell_angle_beta	103.637000
_cell_angle_gamma	99.063001
_symmetry_Int_Tables_number 1

loop_
_symmetry_equiv_pos_as_xyz
'x,y,z'

loop_
_atom_site_label
_atom_site_type_symbol
_atom_site_fract_x
_atom_site_fract_y
_atom_site_fract_z
_atom_site_charge
Co1	Co	0.000000	0.500000	0.000000	0.884946
Co2	Co	0.000000	0.000000	0.500000	0.880059
H1	H	0.445000	0.743900	0.833900	0.122926
H2	H	0.113100	0.466500	0.621200	0.122926
H3	H	0.524300	0.336400	0.777900	0.104104
H4	H	0.156500	0.719000	0.559400	0.114613
H5	H	0.238200	0.057000	0.888900	0.101494
H6	H	0.264300	0.040500	0.044000	0.131540
H7	H	0.171900	0.824400	0.084800	0.085825
H8	H	0.033700	0.629200	0.832700	0.086192
H9	H	0.555000	0.256100	0.166100	0.122926
H10	H	0.886900	0.533500	0.378800	0.122926
H11	H	0.475700	0.663600	0.222100	0.104104
H12	H	0.843500	0.281000	0.440600	0.114613
H13	H	0.761800	0.943000	0.111100	0.101494
H14	H	0.735700	0.959500	0.956000	0.131540
H15	H	0.828100	0.175600	0.915200	0.085825
H16	H	0.966300	0.370800	0.167300	0.086192
C1	C	0.659500	0.572200	0.903100	0.652121
C2	C	0.504800	0.543000	0.819800	-0.108696
C3	C	0.411500	0.651000	0.798100	-0.108167
C4	C	0.267700	0.620800	0.722900	0.099926
C5	C	0.214500	0.485900	0.670400	-0.108167
C6	C	0.311100	0.378500	0.690400	-0.108696
C7	C	0.456900	0.408400	0.764700	-0.026537
C8	C	0.260700	0.233700	0.631500	0.652994
C9	C	0.138100	0.771500	0.611300	0.156434
C10	C	0.128200	0.839300	0.749100	0.276646
C11	C	0.138300	0.840900	0.845400	-0.130462
C12	C	0.203900	0.967800	0.907500	0.030028
C13	C	0.217000	0.957700	0.999100	-0.167433
C14	C	0.161400	0.828500	0.022700	0.182057
C15	C	0.081800	0.714100	0.875900	0.189549
C16	C	0.340500	0.427800	0.096900	0.652121
C17	C	0.495200	0.457000	0.180200	-0.108696
C18	C	0.588500	0.349000	0.201900	-0.108167
C19	C	0.732300	0.379200	0.277100	0.099926
C20	C	0.785500	0.514100	0.329600	-0.108167
C21	C	0.688900	0.621500	0.309600	-0.108696
C22	C	0.543100	0.591600	0.235300	-0.026537
C23	C	0.739300	0.766300	0.368500	0.652994
C24	C	0.861900	0.228500	0.388700	0.156434
C25	C	0.871800	0.160700	0.250900	0.276646
C26	C	0.861700	0.159100	0.154600	-0.130462
C27	C	0.796100	0.032200	0.092500	0.030028
C28	C	0.783000	0.042300	0.000900	-0.167433
C29	C	0.838600	0.171500	0.977300	0.182057
C30	C	0.918200	0.285900	0.124100	0.189549
N1	N	0.177300	0.735400	0.696080	-0.050727
N2	N	0.072100	0.887700	0.612040	-0.207249
N3	N	0.064100	0.932500	0.699590	-0.255568
N4	N	0.091900	0.705600	0.962900	-0.351140
N5	N	0.822700	0.264600	0.303920	-0.050727
N6	N	0.927900	0.112300	0.387960	-0.207249
N7	N	0.935900	0.067500	0.300410	-0.255568
N8	N	0.908100	0.294400	0.037100	-0.351140
O1	O	0.673600	0.679600	0.961380	-0.581977
O2	O	0.761500	0.481600	0.906820	-0.598881
O3	O	0.377800	0.157900	0.632720	-0.581977
O4	O	0.104700	0.197600	0.582590	-0.606198
O5	O	0.326400	0.320400	0.038620	-0.581977
O6	O	0.238500	0.518400	0.093180	-0.598881
O7	O	0.622200	0.842100	0.367280	-0.581977
O8	O	0.895300	0.802400	0.417410	-0.606198
