data_LIJXEI_clean_PM
_symmetry_space_group_name_H-M	'P1'
_cell_length_a	9.949000
_cell_length_b	16.150000
_cell_length_c	24.550000
_cell_angle_alpha	90.000000
_cell_angle_beta	95.830003
_cell_angle_gamma	90.000000
_symmetry_Int_Tables_number 1

loop_
_symmetry_equiv_pos_as_xyz
'x,y,z'

loop_
_atom_site_label
_atom_site_type_symbol
_atom_site_fract_x
_atom_site_fract_y
_atom_site_fract_z
_atom_site_charge
Cd1	Cd	0.160540	0.586570	0.536580	1.157381
Cd2	Cd	0.248600	0.855480	0.984220	1.134584
Cd3	Cd	0.339460	0.086570	0.963420	1.157381
Cd4	Cd	0.251400	0.355480	0.515780	1.134584
Cd5	Cd	0.839460	0.413430	0.463420	1.157381
Cd6	Cd	0.751400	0.144520	0.015780	1.134584
Cd7	Cd	0.660540	0.913430	0.036580	1.157381
Cd8	Cd	0.748600	0.644520	0.484220	1.134584
Cd9	Cd	0.000000	0.000000	0.000000	1.208526
Cd10	Cd	0.500000	0.500000	0.500000	1.208526
H1	H	0.273300	0.628700	0.393800	0.386121
H2	H	0.262400	0.779200	0.119100	0.386121
H3	H	0.862500	0.538900	0.343300	0.100345
H4	H	0.713200	0.539700	0.255900	0.100803
H5	H	0.678700	0.577100	0.165700	0.095067
H6	H	0.853100	0.641000	0.124300	0.095067
H7	H	0.050800	0.677000	0.172300	0.100051
H8	H	0.324700	0.704800	0.282300	0.102537
H9	H	0.274700	0.673700	0.223400	0.102537
H10	H	0.104600	0.003900	0.190300	0.100345
H11	H	0.079600	0.047600	0.286400	0.100803
H12	H	0.103200	0.016300	0.377700	0.095067
H13	H	0.174500	0.883300	0.407700	0.095067
H14	H	0.225100	0.787000	0.348500	0.100051
H15	H	0.985300	0.629100	0.637500	0.076683
H16	H	0.995300	0.673000	0.726500	0.125897
H17	H	0.400900	0.677000	0.727500	0.125897
H18	H	0.376600	0.634300	0.638200	0.076683
H19	H	0.033100	0.777100	0.788900	0.125897
H20	H	0.056800	0.836900	0.874100	0.076683
H21	H	0.409000	0.735800	0.906000	0.076683
H22	H	0.398000	0.675200	0.821600	0.125897
H23	H	0.890400	0.681000	0.987900	0.156102
H24	H	0.030400	0.710300	0.970900	0.156102
H25	H	0.014000	0.690700	0.032400	0.156102
H26	H	0.063700	0.853600	0.534700	0.156102
H27	H	0.142100	0.775500	0.558900	0.156102
H28	H	0.037300	0.819800	0.592500	0.156102
H29	H	0.859900	0.023600	0.071300	0.427131
H30	H	0.226700	0.128700	0.106200	0.386121
H31	H	0.237600	0.279200	0.380900	0.386121
H32	H	0.637500	0.038900	0.156700	0.100345
H33	H	0.786800	0.039700	0.244100	0.100803
H34	H	0.821300	0.077100	0.334300	0.095067
H35	H	0.646900	0.141000	0.375700	0.095067
H36	H	0.449200	0.177000	0.327700	0.100051
H37	H	0.175300	0.204800	0.217700	0.102537
H38	H	0.225300	0.173700	0.276600	0.102537
H39	H	0.395400	0.503900	0.309700	0.100345
H40	H	0.420400	0.547600	0.213600	0.100803
H41	H	0.396800	0.516300	0.122300	0.095067
H42	H	0.325500	0.383300	0.092300	0.095067
H43	H	0.274900	0.287000	0.151500	0.100051
H44	H	0.514700	0.129100	0.862500	0.076683
H45	H	0.504700	0.173000	0.773500	0.125897
H46	H	0.099100	0.177000	0.772500	0.125897
H47	H	0.123400	0.134300	0.861800	0.076683
H48	H	0.466900	0.277100	0.711100	0.125897
H49	H	0.443200	0.336900	0.625900	0.076683
H50	H	0.091000	0.235800	0.594000	0.076683
H51	H	0.102000	0.175200	0.678400	0.125897
H52	H	0.609600	0.181000	0.512100	0.156102
H53	H	0.469600	0.210300	0.529100	0.156102
H54	H	0.486000	0.190700	0.467600	0.156102
H55	H	0.436300	0.353600	0.965300	0.156102
H56	H	0.357900	0.275500	0.941100	0.156102
H57	H	0.462700	0.319800	0.907500	0.156102
H58	H	0.640100	0.523600	0.428700	0.427131
H59	H	0.726700	0.371300	0.606200	0.386121
H60	H	0.737600	0.220800	0.880900	0.386121
H61	H	0.137500	0.461100	0.656700	0.100345
H62	H	0.286800	0.460300	0.744100	0.100803
H63	H	0.321300	0.422900	0.834300	0.095067
H64	H	0.146900	0.359000	0.875700	0.095067
H65	H	0.949200	0.323000	0.827700	0.100051
H66	H	0.675300	0.295200	0.717700	0.102537
H67	H	0.725300	0.326300	0.776600	0.102537
H68	H	0.895400	0.996100	0.809700	0.100345
H69	H	0.920400	0.952400	0.713600	0.100803
H70	H	0.896800	0.983700	0.622300	0.095067
H71	H	0.825500	0.116700	0.592300	0.095067
H72	H	0.774900	0.213000	0.651500	0.100051
H73	H	0.014700	0.370900	0.362500	0.076683
H74	H	0.004700	0.327000	0.273500	0.125897
H75	H	0.599100	0.323000	0.272500	0.125897
H76	H	0.623400	0.365700	0.361800	0.076683
H77	H	0.966900	0.222900	0.211100	0.125897
H78	H	0.943200	0.163100	0.125900	0.076683
H79	H	0.591000	0.264200	0.094000	0.076683
H80	H	0.602000	0.324800	0.178400	0.125897
H81	H	0.109600	0.319000	0.012100	0.156102
H82	H	0.969600	0.289700	0.029100	0.156102
H83	H	0.986000	0.309300	0.967600	0.156102
H84	H	0.936300	0.146400	0.465300	0.156102
H85	H	0.857900	0.224500	0.441100	0.156102
H86	H	0.962700	0.180200	0.407500	0.156102
H87	H	0.140100	0.976400	0.928700	0.427131
H88	H	0.773300	0.871300	0.893800	0.386121
H89	H	0.762400	0.720800	0.619100	0.386121
H90	H	0.362500	0.961100	0.843300	0.100345
H91	H	0.213200	0.960300	0.755900	0.100803
H92	H	0.178700	0.922900	0.665700	0.095067
H93	H	0.353100	0.859000	0.624300	0.095067
H94	H	0.550800	0.823000	0.672300	0.100051
H95	H	0.824700	0.795200	0.782300	0.102537
H96	H	0.774700	0.826300	0.723400	0.102537
H97	H	0.604600	0.496100	0.690300	0.100345
H98	H	0.579600	0.452400	0.786400	0.100803
H99	H	0.603200	0.483700	0.877700	0.095067
H100	H	0.674500	0.616700	0.907700	0.095067
H101	H	0.725100	0.713000	0.848500	0.100051
H102	H	0.485300	0.870900	0.137500	0.076683
H103	H	0.495300	0.827000	0.226500	0.125897
H104	H	0.900900	0.823000	0.227500	0.125897
H105	H	0.876600	0.865700	0.138200	0.076683
H106	H	0.533100	0.722900	0.288900	0.125897
H107	H	0.556800	0.663100	0.374100	0.076683
H108	H	0.909000	0.764200	0.406000	0.076683
H109	H	0.898000	0.824800	0.321600	0.125897
H110	H	0.390400	0.819000	0.487900	0.156102
H111	H	0.530400	0.789700	0.470900	0.156102
H112	H	0.514000	0.809300	0.532400	0.156102
H113	H	0.563700	0.646400	0.034700	0.156102
H114	H	0.642100	0.724500	0.058900	0.156102
H115	H	0.537300	0.680200	0.092500	0.156102
H116	H	0.359900	0.476400	0.571300	0.427131
C1	C	0.068100	0.561610	0.418130	0.696221
C2	C	0.050480	0.583350	0.358060	-0.260856
C3	C	0.930320	0.566090	0.326930	-0.046200
C4	C	0.906820	0.588090	0.271600	0.021929
C5	C	0.780500	0.567470	0.239600	-0.120934
C6	C	0.760600	0.588600	0.186120	-0.080645
C7	C	0.866200	0.628680	0.161430	-0.082895
C8	C	0.985400	0.649660	0.189960	-0.122551
C9	C	0.011500	0.629980	0.247220	0.028360
C10	C	0.135050	0.652180	0.278340	-0.082218
C11	C	0.154350	0.625930	0.332840	0.298284
C12	C	0.247150	0.702910	0.254930	-0.141463
C13	C	0.210730	0.790290	0.237960	-0.082218
C14	C	0.210600	0.814060	0.184010	0.298284
C15	C	0.168670	0.893660	0.165340	-0.261861
C16	C	0.133920	0.951860	0.202580	-0.046200
C17	C	0.142210	0.933490	0.259080	0.021929
C18	C	0.109400	0.995390	0.298250	-0.120934
C19	C	0.122600	0.976540	0.352280	-0.080645
C20	C	0.166300	0.895620	0.370460	-0.082895
C21	C	0.195190	0.838390	0.335060	-0.122551
C22	C	0.182750	0.851350	0.277340	0.028360
C23	C	0.157570	0.917500	0.105480	0.717262
C24	C	0.069830	0.639140	0.656140	0.177501
C25	C	0.074370	0.666090	0.709790	-0.209285
C26	C	0.200550	0.682840	0.738390	0.087499
C27	C	0.314760	0.668440	0.709930	-0.209285
C28	C	0.299670	0.641810	0.656190	0.177501
C29	C	0.212020	0.719610	0.794470	0.087499
C30	C	0.111800	0.768000	0.812020	-0.209285
C31	C	0.125900	0.803500	0.863630	0.179773
C32	C	0.332050	0.744330	0.881810	0.179773
C33	C	0.326670	0.707500	0.831180	-0.209285
C34	C	0.931600	0.800460	0.007570	0.813452
C35	C	0.970000	0.712870	0.998900	-0.558346
C36	C	0.947130	0.749540	0.530190	0.810554
C37	C	0.057600	0.804620	0.556450	-0.558294
C38	C	0.431900	0.061610	0.081870	0.696221
C39	C	0.449520	0.083350	0.141940	-0.260856
C40	C	0.569680	0.066090	0.173070	-0.046200
C41	C	0.593180	0.088090	0.228400	0.021929
C42	C	0.719500	0.067470	0.260400	-0.120934
C43	C	0.739400	0.088600	0.313880	-0.080645
C44	C	0.633800	0.128680	0.338570	-0.082895
C45	C	0.514600	0.149660	0.310040	-0.122551
C46	C	0.488500	0.129980	0.252780	0.028360
C47	C	0.364950	0.152180	0.221660	-0.082218
C48	C	0.345650	0.125930	0.167160	0.298284
C49	C	0.252850	0.202910	0.245070	-0.141463
C50	C	0.289270	0.290290	0.262040	-0.082218
C51	C	0.289400	0.314060	0.315990	0.298284
C52	C	0.331330	0.393660	0.334660	-0.261861
C53	C	0.366080	0.451860	0.297420	-0.046200
C54	C	0.357790	0.433490	0.240920	0.021929
C55	C	0.390600	0.495390	0.201750	-0.120934
C56	C	0.377400	0.476540	0.147720	-0.080645
C57	C	0.333700	0.395620	0.129540	-0.082895
C58	C	0.304810	0.338390	0.164940	-0.122551
C59	C	0.317250	0.351350	0.222660	0.028360
C60	C	0.342430	0.417500	0.394520	0.717262
C61	C	0.430170	0.139140	0.843860	0.177501
C62	C	0.425630	0.166090	0.790210	-0.209285
C63	C	0.299450	0.182840	0.761610	0.087499
C64	C	0.185240	0.168440	0.790070	-0.209285
C65	C	0.200330	0.141810	0.843810	0.177501
C66	C	0.287980	0.219610	0.705530	0.087499
C67	C	0.388200	0.268000	0.687980	-0.209285
C68	C	0.374100	0.303500	0.636370	0.179773
C69	C	0.167950	0.244330	0.618190	0.179773
C70	C	0.173330	0.207500	0.668820	-0.209285
C71	C	0.568400	0.300460	0.492430	0.813452
C72	C	0.530000	0.212870	0.501100	-0.558346
C73	C	0.552870	0.249540	0.969810	0.810554
C74	C	0.442400	0.304620	0.943550	-0.558294
C75	C	0.931900	0.438390	0.581870	0.696221
C76	C	0.949520	0.416650	0.641940	-0.260856
C77	C	0.069680	0.433910	0.673070	-0.046200
C78	C	0.093180	0.411910	0.728400	0.021929
C79	C	0.219500	0.432530	0.760400	-0.120934
C80	C	0.239400	0.411400	0.813880	-0.080645
C81	C	0.133800	0.371320	0.838570	-0.082895
C82	C	0.014600	0.350340	0.810040	-0.122551
C83	C	0.988500	0.370020	0.752780	0.028360
C84	C	0.864950	0.347820	0.721660	-0.082218
C85	C	0.845650	0.374070	0.667160	0.298284
C86	C	0.752850	0.297090	0.745070	-0.141463
C87	C	0.789270	0.209710	0.762040	-0.082218
C88	C	0.789400	0.185940	0.815990	0.298284
C89	C	0.831330	0.106340	0.834660	-0.261861
C90	C	0.866080	0.048140	0.797420	-0.046200
C91	C	0.857790	0.066510	0.740920	0.021929
C92	C	0.890600	0.004610	0.701750	-0.120934
C93	C	0.877400	0.023460	0.647720	-0.080645
C94	C	0.833700	0.104380	0.629540	-0.082895
C95	C	0.804810	0.161610	0.664940	-0.122551
C96	C	0.817250	0.148650	0.722660	0.028360
C97	C	0.842430	0.082500	0.894520	0.717262
C98	C	0.930170	0.360860	0.343860	0.177501
C99	C	0.925630	0.333910	0.290210	-0.209285
C100	C	0.799450	0.317160	0.261610	0.087499
C101	C	0.685240	0.331560	0.290070	-0.209285
C102	C	0.700330	0.358190	0.343810	0.177501
C103	C	0.787980	0.280390	0.205530	0.087499
C104	C	0.888200	0.232000	0.187980	-0.209285
C105	C	0.874100	0.196500	0.136370	0.179773
C106	C	0.667950	0.255670	0.118190	0.179773
C107	C	0.673330	0.292500	0.168820	-0.209285
C108	C	0.068400	0.199540	0.992430	0.813452
C109	C	0.030000	0.287130	0.001100	-0.558346
C110	C	0.052870	0.250460	0.469810	0.810554
C111	C	0.942400	0.195380	0.443550	-0.558294
C112	C	0.568100	0.938390	0.918130	0.696221
C113	C	0.550480	0.916650	0.858060	-0.260856
C114	C	0.430320	0.933910	0.826930	-0.046200
C115	C	0.406820	0.911910	0.771600	0.021929
C116	C	0.280500	0.932530	0.739600	-0.120934
C117	C	0.260600	0.911400	0.686120	-0.080645
C118	C	0.366200	0.871320	0.661430	-0.082895
C119	C	0.485400	0.850340	0.689960	-0.122551
C120	C	0.511500	0.870020	0.747220	0.028360
C121	C	0.635050	0.847820	0.778340	-0.082218
C122	C	0.654350	0.874070	0.832840	0.298284
C123	C	0.747150	0.797090	0.754930	-0.141463
C124	C	0.710730	0.709710	0.737960	-0.082218
C125	C	0.710600	0.685940	0.684010	0.298284
C126	C	0.668670	0.606340	0.665340	-0.261861
C127	C	0.633920	0.548140	0.702580	-0.046200
C128	C	0.642210	0.566510	0.759080	0.021929
C129	C	0.609400	0.504610	0.798250	-0.120934
C130	C	0.622600	0.523460	0.852280	-0.080645
C131	C	0.666300	0.604380	0.870460	-0.082895
C132	C	0.695190	0.661610	0.835060	-0.122551
C133	C	0.682750	0.648650	0.777340	0.028360
C134	C	0.657570	0.582500	0.605480	0.717262
C135	C	0.569830	0.860860	0.156140	0.177501
C136	C	0.574370	0.833910	0.209790	-0.209285
C137	C	0.700550	0.817160	0.238390	0.087499
C138	C	0.814760	0.831560	0.209930	-0.209285
C139	C	0.799670	0.858190	0.156190	0.177501
C140	C	0.712020	0.780390	0.294470	0.087499
C141	C	0.611800	0.732000	0.312020	-0.209285
C142	C	0.625900	0.696500	0.363630	0.179773
C143	C	0.832050	0.755670	0.381810	0.179773
C144	C	0.826670	0.792500	0.331180	-0.209285
C145	C	0.431600	0.699540	0.507570	0.813452
C146	C	0.470000	0.787130	0.498900	-0.558346
C147	C	0.447130	0.750460	0.030190	0.810554
C148	C	0.557600	0.695380	0.056450	-0.558294
N1	N	0.178740	0.626450	0.628980	-0.367881
N2	N	0.233980	0.791490	0.898500	-0.381203
N3	N	0.321260	0.126450	0.871020	-0.367881
N4	N	0.266020	0.291490	0.601500	-0.381203
N5	N	0.821260	0.373550	0.371020	-0.367881
N6	N	0.766020	0.208510	0.101500	-0.381203
N7	N	0.678740	0.873550	0.128980	-0.367881
N8	N	0.733980	0.708510	0.398500	-0.381203
O1	O	0.174620	0.587240	0.445890	-0.632333
O2	O	0.975940	0.523460	0.438160	-0.632333
O3	O	0.276120	0.642000	0.361680	-0.529623
O4	O	0.083920	0.977050	0.089090	-0.655924
O5	O	0.228590	0.872800	0.075650	-0.642124
O6	O	0.247980	0.756310	0.147720	-0.529623
O7	O	0.837730	0.818570	0.035170	-0.616403
O8	O	0.002470	0.854160	0.984530	-0.711658
O9	O	0.975830	0.674370	0.518210	-0.699060
O10	O	0.830150	0.776940	0.519400	-0.624655
O11	O	0.810930	0.017120	0.043310	-0.942788
O12	O	0.325380	0.087240	0.054110	-0.632333
O13	O	0.524060	0.023460	0.061840	-0.632333
O14	O	0.223880	0.142000	0.138320	-0.529623
O15	O	0.416080	0.477050	0.410910	-0.655924
O16	O	0.271410	0.372800	0.424350	-0.642124
O17	O	0.252020	0.256310	0.352280	-0.529623
O18	O	0.662270	0.318570	0.464830	-0.616403
O19	O	0.497530	0.354160	0.515470	-0.711658
O20	O	0.524170	0.174370	0.981790	-0.699060
O21	O	0.669850	0.276940	0.980600	-0.624655
O22	O	0.689070	0.517120	0.456690	-0.942788
O23	O	0.825380	0.412760	0.554110	-0.632333
O24	O	0.024060	0.476540	0.561840	-0.632333
O25	O	0.723880	0.358000	0.638320	-0.529623
O26	O	0.916080	0.022950	0.910910	-0.655924
O27	O	0.771410	0.127200	0.924350	-0.642124
O28	O	0.752020	0.243690	0.852280	-0.529623
O29	O	0.162270	0.181430	0.964830	-0.616403
O30	O	0.997530	0.145840	0.015470	-0.711658
O31	O	0.024170	0.325630	0.481790	-0.699060
O32	O	0.169850	0.223060	0.480600	-0.624655
O33	O	0.189070	0.982880	0.956690	-0.942788
O34	O	0.674620	0.912760	0.945890	-0.632333
O35	O	0.475940	0.976540	0.938160	-0.632333
O36	O	0.776120	0.858000	0.861680	-0.529623
O37	O	0.583920	0.522950	0.589090	-0.655924
O38	O	0.728590	0.627200	0.575650	-0.642124
O39	O	0.747980	0.743690	0.647720	-0.529623
O40	O	0.337730	0.681430	0.535170	-0.616403
O41	O	0.502470	0.645840	0.484530	-0.711658
O42	O	0.475830	0.825630	0.018210	-0.699060
O43	O	0.330150	0.723060	0.019400	-0.624655
O44	O	0.310930	0.482880	0.543310	-0.942788
