data_LUMDEC_clean_PM
_symmetry_space_group_name_H-M	'P1'
_cell_length_a	17.468200
_cell_length_b	17.468200
_cell_length_c	17.468200
_cell_angle_alpha	97.470098
_cell_angle_beta	115.784999
_cell_angle_gamma	115.785001
_symmetry_Int_Tables_number 1

loop_
_symmetry_equiv_pos_as_xyz
'x,y,z'

loop_
_atom_site_label
_atom_site_type_symbol
_atom_site_fract_x
_atom_site_fract_y
_atom_site_fract_z
_atom_site_charge
Cd1	Cd	0.455210	0.049390	0.163420	0.942856
Cd2	Cd	0.955210	0.791790	0.405820	0.942856
Cd3	Cd	0.044790	0.208210	0.594180	0.942856
Cd4	Cd	0.544790	0.950610	0.836580	0.942856
Cd5	Cd	0.114030	0.163420	0.208210	0.942856
Cd6	Cd	0.614030	0.405820	0.950610	0.942856
Cd7	Cd	0.385970	0.594180	0.049390	0.942856
Cd8	Cd	0.885970	0.836580	0.791790	0.942856
H1	H	0.649000	0.034100	0.325100	0.116352
H2	H	0.453000	0.884800	0.065200	0.089302
H3	H	0.755200	0.947400	0.368400	0.108777
H4	H	0.694300	0.820800	0.209700	0.126857
H5	H	0.594000	0.284100	0.284500	0.116352
H6	H	0.614600	0.160500	0.100700	0.089302
H7	H	0.708400	0.462200	0.309800	0.108777
H8	H	0.814000	0.486600	0.227200	0.129271
H9	H	0.560100	0.828900	0.122400	0.283741
H10	H	0.715000	0.321900	0.142100	0.283741
H11	H	0.149000	0.823900	0.614900	0.116352
H12	H	0.953000	0.887800	0.568200	0.089302
H13	H	0.255200	0.886800	0.807800	0.108777
H14	H	0.194300	0.984600	0.873500	0.126857
H15	H	0.094000	0.809500	0.309900	0.116352
H16	H	0.114600	0.013900	0.454100	0.089302
H17	H	0.208400	0.898600	0.246200	0.108777
H18	H	0.314000	0.086800	0.327400	0.129271
H19	H	0.060100	0.937700	0.731200	0.283741
H20	H	0.215000	0.072900	0.393100	0.283741
H21	H	0.851000	0.176100	0.385100	0.116352
H22	H	0.047000	0.112200	0.431800	0.089302
H23	H	0.744800	0.113200	0.192200	0.108777
H24	H	0.805700	0.015400	0.126500	0.126857
H25	H	0.906000	0.190500	0.690100	0.116352
H26	H	0.885400	0.986100	0.545900	0.089302
H27	H	0.791600	0.101400	0.753800	0.108777
H28	H	0.686000	0.913200	0.672600	0.129271
H29	H	0.939900	0.062300	0.268800	0.283741
H30	H	0.785000	0.927100	0.606900	0.283741
H31	H	0.351000	0.965900	0.674900	0.116352
H32	H	0.547000	0.115200	0.934800	0.089302
H33	H	0.244800	0.052600	0.631600	0.108777
H34	H	0.305700	0.179200	0.790300	0.126857
H35	H	0.406000	0.715900	0.715500	0.116352
H36	H	0.385400	0.839500	0.899300	0.089302
H37	H	0.291600	0.537800	0.690200	0.108777
H38	H	0.186000	0.513400	0.772800	0.129271
H39	H	0.439900	0.171100	0.877600	0.283741
H40	H	0.285000	0.678100	0.857900	0.283741
H41	H	0.291000	0.325100	0.176100	0.116352
H42	H	0.180400	0.065200	0.112200	0.089302
H43	H	0.421000	0.368400	0.113200	0.108777
H44	H	0.388900	0.209700	0.015400	0.126857
H45	H	0.000400	0.284500	0.190500	0.116352
H46	H	0.940200	0.100700	0.986100	0.089302
H47	H	0.847600	0.309800	0.101400	0.108777
H48	H	0.740600	0.227200	0.913200	0.129271
H49	H	0.293500	0.122400	0.062300	0.283741
H50	H	0.820200	0.142100	0.927100	0.283741
H51	H	0.791000	0.614900	0.965900	0.116352
H52	H	0.680400	0.568200	0.115200	0.089302
H53	H	0.921000	0.807800	0.052600	0.108777
H54	H	0.888900	0.873500	0.179200	0.126857
H55	H	0.500400	0.309900	0.715900	0.116352
H56	H	0.440200	0.454100	0.839500	0.089302
H57	H	0.347600	0.246200	0.537800	0.108777
H58	H	0.240600	0.327400	0.513400	0.129271
H59	H	0.793500	0.731200	0.171100	0.283741
H60	H	0.320200	0.393100	0.678100	0.283741
H61	H	0.209000	0.385100	0.034100	0.116352
H62	H	0.319600	0.431800	0.884800	0.089302
H63	H	0.079000	0.192200	0.947400	0.108777
H64	H	0.111100	0.126500	0.820800	0.126857
H65	H	0.499600	0.690100	0.284100	0.116352
H66	H	0.559800	0.545900	0.160500	0.089302
H67	H	0.652400	0.753800	0.462200	0.108777
H68	H	0.759400	0.672600	0.486600	0.129271
H69	H	0.206500	0.268800	0.828900	0.283741
H70	H	0.679800	0.606900	0.321900	0.283741
H71	H	0.709000	0.674900	0.823900	0.116352
H72	H	0.819600	0.934800	0.887800	0.089302
H73	H	0.579000	0.631600	0.886800	0.108777
H74	H	0.611100	0.790300	0.984600	0.126857
H75	H	0.999600	0.715500	0.809500	0.116352
H76	H	0.059800	0.899300	0.013900	0.089302
H77	H	0.152400	0.690200	0.898600	0.108777
H78	H	0.259400	0.772800	0.086800	0.129271
H79	H	0.706500	0.877600	0.937700	0.283741
H80	H	0.179800	0.857900	0.072900	0.283741
C1	C	0.632800	0.924800	0.247200	0.087574
C2	C	0.612600	0.987800	0.267200	0.035359
C3	C	0.506300	0.907800	0.126300	0.230438
C4	C	0.714800	0.912600	0.305000	-0.074020
C5	C	0.734900	0.856000	0.272900	-0.263318
C6	C	0.817300	0.845400	0.331100	0.655906
C7	C	0.672600	0.341600	0.229400	0.087574
C8	C	0.612000	0.274400	0.243000	0.035359
C9	C	0.622700	0.206100	0.143200	0.230438
C10	C	0.726100	0.440700	0.272800	-0.069112
C11	C	0.797000	0.504900	0.266500	-0.277835
C12	C	0.850800	0.605600	0.320400	0.688367
C13	C	0.132800	0.885600	0.708000	0.087574
C14	C	0.112600	0.845400	0.624800	0.035359
C15	C	0.006300	0.880000	0.598500	0.230438
C16	C	0.214800	0.909800	0.802200	-0.074020
C17	C	0.234900	0.962000	0.878900	-0.263318
C18	C	0.317300	0.986200	0.971900	0.655906
C19	C	0.172600	0.943200	0.331000	0.087574
C20	C	0.112000	0.869000	0.337600	0.035359
C21	C	0.122700	0.979500	0.416600	0.230438
C22	C	0.226100	0.953300	0.285400	-0.069112
C23	C	0.297000	0.030500	0.292100	-0.277835
C24	C	0.350800	0.030400	0.245200	0.688367
C25	C	0.867200	0.114400	0.292000	0.087574
C26	C	0.887400	0.154600	0.375200	0.035359
C27	C	0.993700	0.120000	0.401500	0.230438
C28	C	0.785200	0.090200	0.197800	-0.074020
C29	C	0.765100	0.038000	0.121100	-0.263318
C30	C	0.682700	0.013800	0.028100	0.655906
C31	C	0.827400	0.056800	0.669000	0.087574
C32	C	0.888000	0.131000	0.662400	0.035359
C33	C	0.877300	0.020500	0.583400	0.230438
C34	C	0.773900	0.046700	0.714600	-0.069112
C35	C	0.703000	0.969500	0.707900	-0.277835
C36	C	0.649200	0.969600	0.754800	0.688367
C37	C	0.367200	0.075200	0.752800	0.087574
C38	C	0.387400	0.012200	0.732800	0.035359
C39	C	0.493700	0.092200	0.873700	0.230438
C40	C	0.285200	0.087400	0.695000	-0.074020
C41	C	0.265100	0.144000	0.727100	-0.263318
C42	C	0.182700	0.154600	0.668900	0.655906
C43	C	0.327400	0.658400	0.770600	0.087574
C44	C	0.388000	0.725600	0.757000	0.035359
C45	C	0.377300	0.793900	0.856800	0.230438
C46	C	0.273900	0.559300	0.727200	-0.069112
C47	C	0.203000	0.495100	0.733500	-0.277835
C48	C	0.149200	0.394400	0.679600	0.688367
C49	C	0.322400	0.247200	0.114400	0.087574
C50	C	0.279400	0.267200	0.154600	0.035359
C51	C	0.218500	0.126300	0.120000	0.230438
C52	C	0.392400	0.305000	0.090200	-0.074020
C53	C	0.416900	0.272900	0.038000	-0.263318
C54	C	0.485700	0.331100	0.013800	0.655906
C55	C	0.887800	0.229400	0.056800	0.087574
C56	C	0.968600	0.243000	0.131000	0.035359
C57	C	0.937100	0.143200	0.020500	0.230438
C58	C	0.832100	0.272800	0.046700	-0.069112
C59	C	0.761600	0.266500	0.969500	-0.277835
C60	C	0.714800	0.320400	0.969600	0.688367
C61	C	0.822400	0.708000	0.075200	0.087574
C62	C	0.779400	0.624800	0.012200	0.035359
C63	C	0.718500	0.598500	0.092200	0.230438
C64	C	0.892400	0.802200	0.087400	-0.074020
C65	C	0.916900	0.878900	0.144000	-0.263318
C66	C	0.985700	0.971900	0.154600	0.655906
C67	C	0.387800	0.331000	0.658400	0.087574
C68	C	0.468600	0.337600	0.725600	0.035359
C69	C	0.437100	0.416600	0.793900	0.230438
C70	C	0.332100	0.285400	0.559300	-0.069112
C71	C	0.261600	0.292100	0.495100	-0.277835
C72	C	0.214800	0.245200	0.394400	0.688367
C73	C	0.177600	0.292000	0.924800	0.087574
C74	C	0.220600	0.375200	0.987800	0.035359
C75	C	0.281500	0.401500	0.907800	0.230438
C76	C	0.107600	0.197800	0.912600	-0.074020
C77	C	0.083100	0.121100	0.856000	-0.263318
C78	C	0.014300	0.028100	0.845400	0.655906
C79	C	0.612200	0.669000	0.341600	0.087574
C80	C	0.531400	0.662400	0.274400	0.035359
C81	C	0.562900	0.583400	0.206100	0.230438
C82	C	0.667900	0.714600	0.440700	-0.069112
C83	C	0.738400	0.707900	0.504900	-0.277835
C84	C	0.785200	0.754800	0.605600	0.688367
C85	C	0.677600	0.752800	0.885600	0.087574
C86	C	0.720600	0.732800	0.845400	0.035359
C87	C	0.781500	0.873700	0.880000	0.230438
C88	C	0.607600	0.695000	0.909800	-0.074020
C89	C	0.583100	0.727100	0.962000	-0.263318
C90	C	0.514300	0.668900	0.986200	0.655906
C91	C	0.112200	0.770600	0.943200	0.087574
C92	C	0.031400	0.757000	0.869000	0.035359
C93	C	0.062900	0.856800	0.979500	0.230438
C94	C	0.167900	0.727200	0.953300	-0.069112
C95	C	0.238400	0.733500	0.030500	-0.277835
C96	C	0.285200	0.679600	0.030400	0.688367
N1	N	0.565000	0.873900	0.155500	-0.232149
N2	N	0.531100	0.973500	0.190000	-0.399525
N3	N	0.680100	0.296600	0.164500	-0.232149
N4	N	0.579500	0.189600	0.188900	-0.399525
N5	N	0.065000	0.909500	0.691100	-0.232149
N6	N	0.031100	0.841100	0.557600	-0.399525
N7	N	0.180100	0.015600	0.383500	-0.232149
N8	N	0.079500	0.890600	0.389900	-0.399525
N9	N	0.935000	0.090500	0.308900	-0.232149
N10	N	0.968900	0.158900	0.442400	-0.399525
N11	N	0.819900	0.984400	0.616500	-0.232149
N12	N	0.920500	0.109400	0.610100	-0.399525
N13	N	0.435000	0.126100	0.844500	-0.232149
N14	N	0.468900	0.026500	0.810000	-0.399525
N15	N	0.319900	0.703400	0.835500	-0.232149
N16	N	0.420500	0.810400	0.811100	-0.399525
N17	N	0.281600	0.155500	0.090500	-0.232149
N18	N	0.216500	0.190000	0.158900	-0.399525
N19	N	0.867900	0.164500	0.984400	-0.232149
N20	N	0.999300	0.188900	0.109400	-0.399525
N21	N	0.781600	0.691100	0.126100	-0.232149
N22	N	0.716500	0.557600	0.026500	-0.399525
N23	N	0.367900	0.383500	0.703400	-0.232149
N24	N	0.499300	0.389900	0.810400	-0.399525
N25	N	0.218400	0.308900	0.873900	-0.232149
N26	N	0.283500	0.442400	0.973500	-0.399525
N27	N	0.632100	0.616500	0.296600	-0.232149
N28	N	0.500700	0.610100	0.189600	-0.399525
N29	N	0.718400	0.844500	0.909500	-0.232149
N30	N	0.783500	0.810000	0.841100	-0.399525
N31	N	0.132100	0.835500	0.015600	-0.232149
N32	N	0.000700	0.811100	0.890600	-0.399525
O1	O	0.929400	0.660400	0.322400	-0.628041
O2	O	0.820600	0.632800	0.364400	-0.628041
O3	O	0.832200	0.794800	0.289200	-0.618201
O4	O	0.869100	0.882400	0.415900	-0.624429
O5	O	0.429400	0.107000	0.269000	-0.628041
O6	O	0.320600	0.956200	0.187800	-0.628041
O7	O	0.332200	0.043000	0.037400	-0.618201
O8	O	0.369100	0.953200	0.986700	-0.624429
O9	O	0.570600	0.893000	0.731000	-0.628041
O10	O	0.679400	0.043800	0.812200	-0.628041
O11	O	0.667800	0.957000	0.962600	-0.618201
O12	O	0.630900	0.046800	0.013300	-0.624429
O13	O	0.070600	0.339600	0.677600	-0.628041
O14	O	0.179400	0.367200	0.635600	-0.628041
O15	O	0.167800	0.205200	0.710800	-0.618201
O16	O	0.130900	0.117600	0.584100	-0.624429
O17	O	0.662000	0.322400	0.893000	-0.628041
O18	O	0.731600	0.364400	0.043800	-0.628041
O19	O	0.494400	0.289200	0.957000	-0.618201
O20	O	0.533500	0.415900	0.046800	-0.624429
O21	O	0.162000	0.269000	0.339600	-0.628041
O22	O	0.231600	0.187800	0.367200	-0.628041
O23	O	0.994400	0.037400	0.205200	-0.618201
O24	O	0.033500	0.986700	0.117600	-0.624429
O25	O	0.838000	0.731000	0.660400	-0.628041
O26	O	0.768400	0.812200	0.632800	-0.628041
O27	O	0.005600	0.962600	0.794800	-0.618201
O28	O	0.966500	0.013300	0.882400	-0.624429
O29	O	0.338000	0.677600	0.107000	-0.628041
O30	O	0.268400	0.635600	0.956200	-0.628041
O31	O	0.505600	0.710800	0.043000	-0.618201
O32	O	0.466500	0.584100	0.953200	-0.624429
