data_MABJOP_clean_PM
_symmetry_space_group_name_H-M	'P1'
_cell_length_a	8.528400
_cell_length_b	12.367499
_cell_length_c	12.367500
_cell_angle_alpha	63.697001
_cell_angle_beta	80.943503
_cell_angle_gamma	80.943502
_symmetry_Int_Tables_number 1

loop_
_symmetry_equiv_pos_as_xyz
'x,y,z'

loop_
_atom_site_label
_atom_site_type_symbol
_atom_site_fract_x
_atom_site_fract_y
_atom_site_fract_z
_atom_site_charge
Cu1	Cu	0.925650	0.597600	0.006040	0.827029
Cu2	Cu	0.574350	0.993960	0.402400	0.827029
Cu3	Cu	0.074350	0.402400	0.993960	0.827029
Cu4	Cu	0.425650	0.006040	0.597600	0.827029
H1	H	0.746100	0.274100	0.350300	0.124029
H2	H	0.815300	0.362600	0.389800	0.124029
H3	H	0.000400	0.152300	0.381300	0.067747
H4	H	0.051300	0.235600	0.436200	0.067747
H5	H	0.958000	0.058600	0.595000	0.124029
H6	H	0.842200	0.174300	0.593700	0.124029
H7	H	0.820200	0.857200	0.835000	0.077498
H8	H	0.642100	0.020100	0.825900	0.126485
H9	H	0.505200	0.834300	0.176900	0.126485
H10	H	0.687600	0.676800	0.176800	0.077498
H11	H	0.753900	0.649700	0.725900	0.124029
H12	H	0.684700	0.610200	0.637400	0.124029
H13	H	0.499600	0.618700	0.847700	0.067747
H14	H	0.448700	0.563800	0.764400	0.067747
H15	H	0.542000	0.405000	0.941400	0.124029
H16	H	0.657800	0.406300	0.825700	0.124029
H17	H	0.679800	0.165000	0.142800	0.077498
H18	H	0.857900	0.174100	0.979900	0.126485
H19	H	0.994800	0.823100	0.165700	0.126485
H20	H	0.812400	0.823200	0.323200	0.077498
H21	H	0.253900	0.725900	0.649700	0.124029
H22	H	0.184700	0.637400	0.610200	0.124029
H23	H	0.999600	0.847700	0.618700	0.067747
H24	H	0.948700	0.764400	0.563800	0.067747
H25	H	0.042000	0.941400	0.405000	0.124029
H26	H	0.157800	0.825700	0.406300	0.124029
H27	H	0.179800	0.142800	0.165000	0.077498
H28	H	0.357900	0.979900	0.174100	0.126485
H29	H	0.494800	0.165700	0.823100	0.126485
H30	H	0.312400	0.323200	0.823200	0.077498
H31	H	0.246100	0.350300	0.274100	0.124029
H32	H	0.315300	0.389800	0.362600	0.124029
H33	H	0.500400	0.381300	0.152300	0.067747
H34	H	0.551300	0.436200	0.235600	0.067747
H35	H	0.458000	0.595000	0.058600	0.124029
H36	H	0.342200	0.593700	0.174300	0.124029
H37	H	0.320200	0.835000	0.857200	0.077498
H38	H	0.142100	0.825900	0.020100	0.126485
H39	H	0.005200	0.176900	0.834300	0.126485
H40	H	0.187600	0.176800	0.676800	0.077498
C1	C	0.906700	0.380120	0.220340	0.687226
C2	C	0.844800	0.307270	0.349870	-0.340564
C3	C	0.959300	0.202780	0.425180	-0.013767
C4	C	0.879100	0.124390	0.548590	-0.340564
C5	C	0.738800	0.069430	0.539410	0.687226
C6	C	0.755900	0.852260	0.906860	0.169808
C7	C	0.650000	0.950110	0.900910	-0.200123
C8	C	0.556100	0.947660	0.001660	0.085443
C9	C	0.570600	0.842490	0.104490	-0.200123
C10	C	0.679200	0.748580	0.103580	0.169808
C11	C	0.593300	0.779660	0.619880	0.687226
C12	C	0.655200	0.650130	0.692730	-0.340564
C13	C	0.540700	0.574820	0.797220	-0.013767
C14	C	0.620900	0.451410	0.875610	-0.340564
C15	C	0.761200	0.460590	0.930570	0.687226
C16	C	0.744100	0.093140	0.147740	0.169808
C17	C	0.850000	0.099090	0.049890	-0.200123
C18	C	0.943900	0.998340	0.052340	0.085443
C19	C	0.929400	0.895510	0.157510	-0.200123
C20	C	0.820800	0.896420	0.251420	0.169808
C21	C	0.093300	0.619880	0.779660	0.687226
C22	C	0.155200	0.692730	0.650130	-0.340564
C23	C	0.040700	0.797220	0.574820	-0.013767
C24	C	0.120900	0.875610	0.451410	-0.340564
C25	C	0.261200	0.930570	0.460590	0.687226
C26	C	0.244100	0.147740	0.093140	0.169808
C27	C	0.350000	0.049890	0.099090	-0.200123
C28	C	0.443900	0.052340	0.998340	0.085443
C29	C	0.429400	0.157510	0.895510	-0.200123
C30	C	0.320800	0.251420	0.896420	0.169808
C31	C	0.406700	0.220340	0.380120	0.687226
C32	C	0.344800	0.349870	0.307270	-0.340564
C33	C	0.459300	0.425180	0.202780	-0.013767
C34	C	0.379100	0.548590	0.124390	-0.340564
C35	C	0.238800	0.539410	0.069430	0.687226
C36	C	0.255900	0.906860	0.852260	0.169808
C37	C	0.150000	0.900910	0.950110	-0.200123
C38	C	0.056100	0.001660	0.947660	0.085443
C39	C	0.070600	0.104490	0.842490	-0.200123
C40	C	0.179200	0.103580	0.748580	0.169808
N1	N	0.772700	0.752550	0.006650	-0.308358
N2	N	0.727300	0.993350	0.247450	-0.308358
N3	N	0.227300	0.247450	0.993350	-0.308358
N4	N	0.272700	0.006650	0.752550	-0.308358
O1	O	0.865900	0.491280	0.176060	-0.565654
O2	O	0.991100	0.324120	0.165340	-0.565654
O3	O	0.748200	0.041400	0.453500	-0.565654
O4	O	0.621200	0.057240	0.617860	-0.565654
O5	O	0.634100	0.823940	0.508720	-0.565654
O6	O	0.508900	0.834660	0.675880	-0.565654
O7	O	0.751800	0.546500	0.958600	-0.565654
O8	O	0.878800	0.382140	0.942760	-0.565654
O9	O	0.134100	0.508720	0.823940	-0.565654
O10	O	0.008900	0.675880	0.834660	-0.565654
O11	O	0.251800	0.958600	0.546500	-0.565654
O12	O	0.378800	0.942760	0.382140	-0.565654
O13	O	0.365900	0.176060	0.491280	-0.565654
O14	O	0.491100	0.165340	0.324120	-0.565654
O15	O	0.248200	0.453500	0.041400	-0.565654
O16	O	0.121200	0.617860	0.057240	-0.565654
