data_MATTUX_clean_PM
_symmetry_space_group_name_H-M	'P1'
_cell_length_a	12.975800
_cell_length_b	13.109500
_cell_length_c	13.925800
_cell_angle_alpha	85.309998
_cell_angle_beta	70.710001
_cell_angle_gamma	84.193000
_symmetry_Int_Tables_number 1

loop_
_symmetry_equiv_pos_as_xyz
'x,y,z'

loop_
_atom_site_label
_atom_site_type_symbol
_atom_site_fract_x
_atom_site_fract_y
_atom_site_fract_z
_atom_site_charge
Zn1	Zn	0.192480	0.318910	0.663230	0.923197
Zn2	Zn	0.128930	0.325620	0.886450	0.923197
Zn3	Zn	0.807520	0.681090	0.336770	0.923197
Zn4	Zn	0.871070	0.674380	0.113550	0.923197
H1	H	0.760000	0.347400	0.970700	0.099230
H2	H	0.582000	0.349800	0.972100	0.104294
H3	H	0.872100	0.305100	0.668300	0.106196
H4	H	0.449000	0.329400	0.880500	0.106196
H5	H	0.560600	0.286400	0.578500	0.099230
H6	H	0.737200	0.287900	0.576500	0.104294
H7	H	0.201000	0.988600	0.650800	0.106196
H8	H	0.105600	0.823400	0.976500	0.104294
H9	H	0.117100	0.998900	0.957200	0.099230
H10	H	0.124700	0.655500	0.898400	0.106196
H11	H	0.170400	0.649700	0.601000	0.099230
H12	H	0.184100	0.820000	0.573400	0.104294
H13	H	0.119600	0.174900	0.058300	0.082290
H14	H	0.135300	0.167200	0.217500	0.129066
H15	H	0.099000	0.467600	0.216300	0.129066
H16	H	0.081600	0.466300	0.060400	0.082290
H17	H	0.196200	0.168000	0.342600	0.129066
H18	H	0.209000	0.170600	0.504100	0.082290
H19	H	0.090900	0.448300	0.528600	0.082290
H20	H	0.065200	0.450200	0.373100	0.129066
H21	H	0.240000	0.652600	0.029300	0.099230
H22	H	0.418000	0.650200	0.027900	0.104294
H23	H	0.127900	0.694900	0.331700	0.106196
H24	H	0.551000	0.670600	0.119500	0.106196
H25	H	0.439400	0.713600	0.421500	0.099230
H26	H	0.262800	0.712100	0.423500	0.104294
H27	H	0.799000	0.011400	0.349200	0.106196
H28	H	0.894400	0.176600	0.023500	0.104294
H29	H	0.882900	0.001100	0.042800	0.099230
H30	H	0.875300	0.344500	0.101600	0.106196
H31	H	0.829600	0.350300	0.399000	0.099230
H32	H	0.815900	0.180000	0.426600	0.104294
H33	H	0.880400	0.825100	0.941700	0.082290
H34	H	0.864700	0.832800	0.782500	0.129066
H35	H	0.901000	0.532400	0.783700	0.129066
H36	H	0.918400	0.533700	0.939600	0.082290
H37	H	0.803800	0.832000	0.657400	0.129066
H38	H	0.791000	0.829400	0.495900	0.082290
H39	H	0.909100	0.551700	0.471400	0.082290
H40	H	0.934800	0.549800	0.626900	0.129066
C1	C	0.948390	0.328320	0.815270	0.667578
C2	C	0.832980	0.326940	0.817090	-0.124452
C3	C	0.745390	0.339220	0.909340	-0.029449
C4	C	0.640240	0.339280	0.910160	-0.146376
C5	C	0.615710	0.324080	0.821330	0.034901
C6	C	0.704350	0.310940	0.728310	0.034901
C7	C	0.812520	0.313270	0.729710	-0.077976
C8	C	0.508660	0.321750	0.818990	-0.077976
C9	C	0.487390	0.308860	0.731000	-0.124452
C10	C	0.574880	0.295860	0.639690	-0.029449
C11	C	0.679070	0.296860	0.638790	-0.146376
C12	C	0.370240	0.311860	0.733140	0.667578
C13	C	0.162800	0.125640	0.790670	0.667578
C14	C	0.159910	0.011210	0.801090	-0.124452
C15	C	0.181660	0.954840	0.716650	-0.077976
C16	C	0.175580	0.847510	0.726620	0.034901
C17	C	0.147660	0.797460	0.824170	0.034901
C18	C	0.125250	0.856210	0.910270	-0.146376
C19	C	0.131740	0.960210	0.898720	-0.029449
C20	C	0.142180	0.689760	0.832840	-0.077976
C21	C	0.161330	0.634100	0.749720	-0.124452
C22	C	0.170000	0.688250	0.656040	-0.029449
C23	C	0.177600	0.787690	0.638480	-0.146376
C24	C	0.157460	0.519220	0.760330	0.667578
C25	C	0.129500	0.235950	0.085450	0.175448
C26	C	0.138600	0.231200	0.179750	-0.198430
C27	C	0.153260	0.322220	0.223500	0.091576
C28	C	0.163990	0.320670	0.325880	0.091576
C29	C	0.117980	0.405910	0.180940	-0.198430
C30	C	0.108620	0.404400	0.087290	0.175448
C31	C	0.186600	0.231330	0.374230	-0.198430
C32	C	0.195400	0.234000	0.470460	0.175448
C33	C	0.125800	0.393990	0.485130	0.175448
C34	C	0.111100	0.396800	0.391980	-0.198430
C35	C	0.051610	0.671680	0.184730	0.667578
C36	C	0.167020	0.673060	0.182910	-0.124452
C37	C	0.254610	0.660780	0.090660	-0.029449
C38	C	0.359760	0.660720	0.089840	-0.146376
C39	C	0.384290	0.675920	0.178670	0.034901
C40	C	0.295650	0.689060	0.271690	0.034901
C41	C	0.187480	0.686730	0.270290	-0.077976
C42	C	0.491340	0.678250	0.181010	-0.077976
C43	C	0.512610	0.691140	0.269000	-0.124452
C44	C	0.425120	0.704140	0.360310	-0.029449
C45	C	0.320930	0.703140	0.361210	-0.146376
C46	C	0.629760	0.688140	0.266860	0.667578
C47	C	0.837200	0.874360	0.209330	0.667578
C48	C	0.840090	0.988790	0.198910	-0.124452
C49	C	0.818340	0.045160	0.283350	-0.077976
C50	C	0.824420	0.152490	0.273380	0.034901
C51	C	0.852340	0.202540	0.175830	0.034901
C52	C	0.874750	0.143790	0.089730	-0.146376
C53	C	0.868260	0.039790	0.101280	-0.029449
C54	C	0.857820	0.310240	0.167160	-0.077976
C55	C	0.838670	0.365900	0.250280	-0.124452
C56	C	0.830000	0.311750	0.343960	-0.029449
C57	C	0.822400	0.212310	0.361520	-0.146376
C58	C	0.842540	0.480780	0.239670	0.667578
C59	C	0.870500	0.764050	0.914550	0.175448
C60	C	0.861400	0.768800	0.820250	-0.198430
C61	C	0.846740	0.677780	0.776500	0.091576
C62	C	0.836010	0.679330	0.674120	0.091576
C63	C	0.882020	0.594090	0.819060	-0.198430
C64	C	0.891380	0.595600	0.912710	0.175448
C65	C	0.813400	0.768670	0.625770	-0.198430
C66	C	0.804600	0.766000	0.529540	0.175448
C67	C	0.874200	0.606010	0.514870	0.175448
C68	C	0.888900	0.603200	0.608020	-0.198430
N1	N	0.133990	0.323780	0.029640	-0.312141
N2	N	0.186010	0.320080	0.519200	-0.312141
N3	N	0.866010	0.676220	0.970360	-0.312141
N4	N	0.813990	0.679920	0.480800	-0.312141
O1	O	0.966100	0.334850	0.898230	-0.586818
O2	O	0.022600	0.326300	0.728780	-0.586818
O3	O	0.296850	0.314560	0.817600	-0.586818
O4	O	0.354380	0.311950	0.648600	-0.586818
O5	O	0.191990	0.166320	0.700960	-0.586818
O6	O	0.133470	0.172740	0.871440	-0.586818
O7	O	0.181000	0.472800	0.678590	-0.586818
O8	O	0.131210	0.478040	0.848950	-0.586818
O9	O	0.033900	0.665150	0.101770	-0.586818
O10	O	0.977400	0.673700	0.271220	-0.586818
O11	O	0.703150	0.685440	0.182400	-0.586818
O12	O	0.645620	0.688050	0.351400	-0.586818
O13	O	0.808010	0.833680	0.299040	-0.586818
O14	O	0.866530	0.827260	0.128560	-0.586818
O15	O	0.819000	0.527200	0.321410	-0.586818
O16	O	0.868790	0.521960	0.151050	-0.586818
