data_MEJZOS_clean_PM
_symmetry_space_group_name_H-M	'P1'
_cell_length_a	15.121999
_cell_length_b	15.167000
_cell_length_c	15.242000
_cell_angle_alpha	106.199001
_cell_angle_beta	103.349999
_cell_angle_gamma	116.989999
_symmetry_Int_Tables_number 1

loop_
_symmetry_equiv_pos_as_xyz
'x,y,z'

loop_
_atom_site_label
_atom_site_type_symbol
_atom_site_fract_x
_atom_site_fract_y
_atom_site_fract_z
_atom_site_charge
Pr1	Pr	0.818930	0.114280	0.682110	2.236965
Pr2	Pr	0.557110	0.865840	0.697640	2.236965
Pr3	Pr	0.415210	0.063370	0.644760	2.284620
Pr4	Pr	0.181070	0.885720	0.317890	2.236965
Pr5	Pr	0.442890	0.134160	0.302360	2.236965
Pr6	Pr	0.584790	0.936630	0.355240	2.284620
P1	P	0.616700	0.142400	0.523600	1.605031
P2	P	0.694900	0.174200	0.803700	1.605699
P3	P	0.625300	0.808400	0.518500	1.605699
P4	P	0.383300	0.857600	0.476400	1.605031
P5	P	0.305100	0.825800	0.196300	1.605699
P6	P	0.374700	0.191600	0.481500	1.605699
H1	H	0.799100	0.626900	0.065300	0.407902
H2	H	0.751300	0.319100	0.711100	0.234092
H3	H	0.658300	0.096700	0.939200	0.234092
H4	H	0.839400	0.891800	0.555800	0.234092
H5	H	0.673100	0.314500	0.528400	0.164846
H6	H	0.773400	0.304300	0.556900	0.164846
H7	H	0.846100	0.512400	0.694100	0.103671
H8	H	0.906300	0.452900	0.709100	0.103671
H9	H	0.965700	0.594900	0.865400	0.089293
H10	H	0.904100	0.479900	0.866800	0.089293
H11	H	0.804800	0.597300	0.840100	0.101334
H12	H	0.641200	0.451500	0.816900	0.089293
H13	H	0.694000	0.386100	0.834900	0.089293
H14	H	0.589200	0.314700	0.659900	0.103671
H15	H	0.662200	0.432300	0.666700	0.103671
H16	H	0.837400	0.221700	0.947900	0.169153
H17	H	0.801800	0.303600	0.972700	0.169153
H18	H	0.718000	0.293200	0.080900	0.103671
H19	H	0.613900	0.223000	0.978700	0.103671
H20	H	0.565700	0.193500	0.107400	0.089293
H21	H	0.529800	0.082700	0.024400	0.089293
H22	H	0.714100	0.206300	0.206200	0.104091
H23	H	0.766200	0.088200	0.163200	0.089293
H24	H	0.662800	0.012700	0.060700	0.089293
H25	H	0.809900	0.116300	0.032200	0.103671
H26	H	0.837500	0.225000	0.111900	0.103671
H27	H	0.670300	0.680700	0.486400	0.169153
H28	H	0.718900	0.747100	0.602500	0.169153
H29	H	0.887600	0.754600	0.600200	0.103671
H30	H	0.904600	0.854400	0.683200	0.103671
H31	H	0.071400	0.897600	0.671900	0.089293
H32	H	0.036200	0.971700	0.641800	0.089293
H33	H	0.005500	0.785900	0.504900	0.104091
H34	H	0.923500	0.811500	0.373800	0.089293
H35	H	0.942000	0.917200	0.449700	0.089293
H36	H	0.762300	0.773100	0.390200	0.103671
H37	H	0.800700	0.703000	0.424300	0.103671
H38	H	0.000200	0.165500	0.029100	0.100020
H39	H	0.128800	0.175000	0.157800	0.100020
H40	H	0.240600	0.069700	0.961600	0.100020
H41	H	0.061800	0.005200	0.878200	0.100020
H42	H	0.011900	0.410600	0.583100	0.100020
H43	H	0.157700	0.550200	0.572500	0.100020
H44	H	0.369400	0.578400	0.817900	0.100020
H45	H	0.216900	0.444000	0.828900	0.100020
H46	H	0.200900	0.373100	0.934700	0.407902
H47	H	0.248700	0.680900	0.288900	0.234092
H48	H	0.341700	0.903300	0.060800	0.234092
H49	H	0.160600	0.108200	0.444200	0.234092
H50	H	0.326900	0.685500	0.471600	0.164846
H51	H	0.226600	0.695700	0.443100	0.164846
H52	H	0.153900	0.487600	0.305900	0.103671
H53	H	0.093700	0.547100	0.290900	0.103671
H54	H	0.034300	0.405100	0.134600	0.089293
H55	H	0.095900	0.520100	0.133200	0.089293
H56	H	0.195200	0.402700	0.159900	0.101334
H57	H	0.358800	0.548500	0.183100	0.089293
H58	H	0.306000	0.613900	0.165100	0.089293
H59	H	0.410800	0.685300	0.340100	0.103671
H60	H	0.337800	0.567700	0.333300	0.103671
H61	H	0.162600	0.778300	0.052100	0.169153
H62	H	0.198200	0.696400	0.027300	0.169153
H63	H	0.282000	0.706800	0.919100	0.103671
H64	H	0.386100	0.777000	0.021300	0.103671
H65	H	0.434300	0.806500	0.892600	0.089293
H66	H	0.470200	0.917300	0.975600	0.089293
H67	H	0.285900	0.793700	0.793800	0.104091
H68	H	0.233800	0.911800	0.836800	0.089293
H69	H	0.337200	0.987300	0.939300	0.089293
H70	H	0.190100	0.883700	0.967800	0.103671
H71	H	0.162500	0.775000	0.888100	0.103671
H72	H	0.329700	0.319300	0.513600	0.169153
H73	H	0.281100	0.252900	0.397500	0.169153
H74	H	0.112400	0.245400	0.399800	0.103671
H75	H	0.095400	0.145600	0.316800	0.103671
H76	H	0.928600	0.102400	0.328100	0.089293
H77	H	0.963800	0.028300	0.358200	0.089293
H78	H	0.994500	0.214100	0.495100	0.104091
H79	H	0.076500	0.188500	0.626200	0.089293
H80	H	0.058000	0.082800	0.550300	0.089293
H81	H	0.237700	0.226900	0.609800	0.103671
H82	H	0.199300	0.297000	0.575700	0.103671
H83	H	0.999800	0.834500	0.970900	0.100020
H84	H	0.871200	0.825000	0.842200	0.100020
H85	H	0.759400	0.930300	0.038400	0.100020
H86	H	0.938200	0.994800	0.121800	0.100020
H87	H	0.988100	0.589400	0.416900	0.100020
H88	H	0.842300	0.449800	0.427500	0.100020
H89	H	0.630600	0.421600	0.182100	0.100020
H90	H	0.783100	0.556000	0.171100	0.100020
C1	C	0.708500	0.289800	0.567800	-0.507916
C2	C	0.853200	0.465600	0.723800	-0.084721
C3	C	0.895300	0.525900	0.836900	-0.149070
C4	C	0.807000	0.544300	0.862900	-0.134654
C5	C	0.694400	0.436200	0.806600	-0.149070
C6	C	0.662000	0.381700	0.694300	-0.084721
C7	C	0.842000	0.589000	0.976000	0.663174
C8	C	0.774700	0.227000	0.939200	-0.516329
C9	C	0.660500	0.219100	0.031300	-0.084721
C10	C	0.592700	0.153300	0.075800	-0.146663
C11	C	0.657900	0.134700	0.151800	-0.150004
C12	C	0.716500	0.088100	0.109600	-0.146663
C13	C	0.778200	0.151900	0.061700	-0.084721
C14	C	0.591300	0.067600	0.195300	0.765699
C15	C	0.709400	0.753600	0.539900	-0.516329
C16	C	0.905000	0.828400	0.618300	-0.084721
C17	C	0.017400	0.897300	0.622300	-0.146663
C18	C	0.019700	0.858400	0.520500	-0.150004
C19	C	0.926300	0.844900	0.438700	-0.146663
C20	C	0.819000	0.776800	0.440000	-0.084721
C21	C	0.130300	0.932600	0.522800	0.765699
C22	C	0.954900	0.097100	0.833900	0.735474
C23	C	0.041100	0.108800	0.920200	-0.132615
C24	C	0.047700	0.142600	0.016200	-0.067476
C25	C	0.125000	0.151500	0.090800	-0.067476
C26	C	0.196500	0.120400	0.071500	-0.132615
C27	C	0.191200	0.089900	0.974200	-0.067476
C28	C	0.112200	0.080800	0.893900	-0.067476
C29	C	0.277100	0.123100	0.148900	0.735474
C30	C	0.008500	0.322900	0.707800	0.735474
C31	C	0.102800	0.415700	0.704900	-0.132615
C32	C	0.085800	0.447600	0.633100	-0.067476
C33	C	0.169300	0.527100	0.625100	-0.067476
C34	C	0.276700	0.580200	0.695700	-0.132615
C35	C	0.295700	0.544200	0.768800	-0.067476
C36	C	0.206600	0.463100	0.773300	-0.067476
C37	C	0.370300	0.668500	0.689400	0.735474
C38	C	0.291500	0.710200	0.432200	-0.507916
C39	C	0.146800	0.534400	0.276200	-0.084721
C40	C	0.104700	0.474100	0.163100	-0.149070
C41	C	0.193000	0.455700	0.137100	-0.134654
C42	C	0.305600	0.563800	0.193400	-0.149070
C43	C	0.338000	0.618300	0.305700	-0.084721
C44	C	0.158000	0.411000	0.024000	0.663174
C45	C	0.225300	0.773000	0.060800	-0.516329
C46	C	0.339500	0.780900	0.968700	-0.084721
C47	C	0.407300	0.846700	0.924200	-0.146663
C48	C	0.342100	0.865300	0.848200	-0.150004
C49	C	0.283500	0.911900	0.890400	-0.146663
C50	C	0.221800	0.848100	0.938300	-0.084721
C51	C	0.408700	0.932400	0.804700	0.765699
C52	C	0.290600	0.246400	0.460100	-0.516329
C53	C	0.095000	0.171600	0.381700	-0.084721
C54	C	0.982600	0.102700	0.377700	-0.146663
C55	C	0.980300	0.141600	0.479500	-0.150004
C56	C	0.073700	0.155100	0.561300	-0.146663
C57	C	0.181000	0.223200	0.560000	-0.084721
C58	C	0.869700	0.067400	0.477200	0.765699
C59	C	0.045100	0.902900	0.166100	0.735474
C60	C	0.958900	0.891200	0.079800	-0.132615
C61	C	0.952300	0.857400	0.983800	-0.067476
C62	C	0.875000	0.848500	0.909200	-0.067476
C63	C	0.803500	0.879600	0.928500	-0.132615
C64	C	0.808800	0.910100	0.025800	-0.067476
C65	C	0.887800	0.919200	0.106100	-0.067476
C66	C	0.722900	0.876900	0.851100	0.735474
C67	C	0.991500	0.677100	0.292200	0.735474
C68	C	0.897200	0.584300	0.295100	-0.132615
C69	C	0.914200	0.552400	0.366900	-0.067476
C70	C	0.830700	0.472900	0.374900	-0.067476
C71	C	0.723300	0.419800	0.304300	-0.132615
C72	C	0.704300	0.455800	0.231200	-0.067476
C73	C	0.793400	0.536900	0.226700	-0.067476
C74	C	0.629700	0.331500	0.310600	0.735474
N1	N	0.745300	0.358600	0.677300	0.152110
N2	N	0.712700	0.165400	0.986800	0.161292
N3	N	0.822100	0.822500	0.540900	0.161292
N4	N	0.254700	0.641400	0.322700	0.152110
N5	N	0.287300	0.834600	0.013200	0.161292
N6	N	0.177900	0.177500	0.459100	0.161292
O1	O	0.558200	0.098300	0.411300	-1.050471
O2	O	0.545200	0.126300	0.579800	-0.910883
O3	O	0.682500	0.091400	0.537500	-1.050471
O4	O	0.926600	0.607600	0.033800	-0.613249
O5	O	0.774000	0.603000	0.001400	-0.551808
O6	O	0.779300	0.248500	0.774000	-0.917889
O7	O	0.671500	0.057900	0.752100	-1.037187
O8	O	0.592500	0.174300	0.786600	-0.941834
O9	O	0.498000	0.050000	0.181100	-0.692240
O10	O	0.628200	0.026400	0.243600	-0.724380
O11	O	0.613400	0.816300	0.421300	-0.941834
O12	O	0.687900	0.922300	0.610100	-1.037187
O13	O	0.523600	0.735800	0.529800	-0.917889
O14	O	0.213500	0.961900	0.597100	-0.724380
O15	O	0.135700	0.960400	0.454400	-0.692240
O16	O	0.914200	0.274600	0.637700	-0.685664
O17	O	0.021300	0.290800	0.774400	-0.685664
O18	O	0.351200	0.717600	0.641500	-0.685664
O19	O	0.464700	0.694300	0.735700	-0.685664
O20	O	0.941800	0.053200	0.744700	-0.685664
O21	O	0.902100	0.135800	0.854300	-0.685664
O22	O	0.301200	0.179400	0.241100	-0.685664
O23	O	0.318300	0.072500	0.126000	-0.685664
O24	O	0.441800	0.901700	0.588700	-1.050471
O25	O	0.454800	0.873700	0.420200	-0.910883
O26	O	0.317500	0.908600	0.462500	-1.050471
O27	O	0.073400	0.392400	0.966200	-0.613249
O28	O	0.226000	0.397000	0.998600	-0.551808
O29	O	0.220700	0.751500	0.226000	-0.917889
O30	O	0.328500	0.942100	0.247900	-1.037187
O31	O	0.407500	0.825700	0.213400	-0.941834
O32	O	0.502000	0.950000	0.818900	-0.692240
O33	O	0.371800	0.973600	0.756400	-0.724380
O34	O	0.386600	0.183700	0.578700	-0.941834
O35	O	0.312100	0.077700	0.389900	-1.037187
O36	O	0.476400	0.264200	0.470200	-0.917889
O37	O	0.786500	0.038100	0.402900	-0.724380
O38	O	0.864300	0.039600	0.545600	-0.692240
O39	O	0.085800	0.725400	0.362300	-0.685664
O40	O	0.978700	0.709200	0.225600	-0.685664
O41	O	0.648800	0.282400	0.358500	-0.685664
O42	O	0.535300	0.305700	0.264300	-0.685664
O43	O	0.058200	0.946800	0.255300	-0.685664
O44	O	0.097900	0.864200	0.145700	-0.685664
O45	O	0.698800	0.820600	0.758900	-0.685664
O46	O	0.681700	0.927500	0.874000	-0.685664
