data_MICNES_clean_PM
_symmetry_space_group_name_H-M	'P1'
_cell_length_a	13.458800
_cell_length_b	13.458800
_cell_length_c	17.118800
_cell_angle_alpha	111.335001
_cell_angle_beta	111.335001
_cell_angle_gamma	90.496700
_symmetry_Int_Tables_number 1

loop_
_symmetry_equiv_pos_as_xyz
'x,y,z'

loop_
_atom_site_label
_atom_site_type_symbol
_atom_site_fract_x
_atom_site_fract_y
_atom_site_fract_z
_atom_site_charge
Cd1	Cd	0.625380	0.374620	0.250000	0.629852
Cd2	Cd	0.374620	0.625380	0.750000	0.629852
H1	H	0.516400	0.154200	0.056400	0.076337
H2	H	0.821500	0.322300	0.186800	0.076337
H3	H	0.576400	0.016200	0.953900	0.125636
H4	H	0.880600	0.193800	0.087400	0.125636
H5	H	0.729600	0.938000	0.932000	0.098775
H6	H	0.732400	0.003400	0.887000	0.098775
H7	H	0.626900	0.488900	0.452300	0.076337
H8	H	0.588500	0.611100	0.275200	0.076337
H9	H	0.640200	0.662800	0.562900	0.125636
H10	H	0.606400	0.783200	0.381000	0.125636
H11	H	0.627400	0.846400	0.606800	0.098775
H12	H	0.713000	0.889400	0.580200	0.098775
H13	H	0.845800	0.483600	0.443600	0.076337
H14	H	0.677700	0.178500	0.313200	0.076337
H15	H	0.983800	0.423600	0.546100	0.125636
H16	H	0.806200	0.119400	0.412600	0.125636
H17	H	0.062000	0.270400	0.568000	0.098775
H18	H	0.996600	0.267600	0.613000	0.098775
H19	H	0.511100	0.373100	0.047700	0.076337
H20	H	0.388900	0.411500	0.224800	0.076337
H21	H	0.337200	0.359800	0.937100	0.125636
H22	H	0.216800	0.393600	0.119000	0.125636
H23	H	0.153600	0.372600	0.893200	0.098775
H24	H	0.110600	0.287000	0.919800	0.098775
H25	H	0.483600	0.845800	0.943600	0.076337
H26	H	0.178500	0.677700	0.813200	0.076337
H27	H	0.423600	0.983800	0.046100	0.125636
H28	H	0.119400	0.806200	0.912600	0.125636
H29	H	0.270400	0.062000	0.068000	0.098775
H30	H	0.267600	0.996600	0.113000	0.098775
H31	H	0.373100	0.511100	0.547700	0.076337
H32	H	0.411500	0.388900	0.724800	0.076337
H33	H	0.359800	0.337200	0.437100	0.125636
H34	H	0.393600	0.216800	0.619000	0.125636
H35	H	0.372600	0.153600	0.393200	0.098775
H36	H	0.287000	0.110600	0.419800	0.098775
H37	H	0.154200	0.516400	0.556400	0.076337
H38	H	0.322300	0.821500	0.686800	0.076337
H39	H	0.016200	0.576400	0.453900	0.125636
H40	H	0.193800	0.880600	0.587400	0.125636
H41	H	0.938000	0.729600	0.432000	0.098775
H42	H	0.003400	0.732400	0.387000	0.098775
H43	H	0.488900	0.626900	0.952300	0.076337
H44	H	0.611100	0.588500	0.775200	0.076337
H45	H	0.662800	0.640200	0.062900	0.125636
H46	H	0.783200	0.606400	0.881000	0.125636
H47	H	0.846400	0.627400	0.106800	0.098775
H48	H	0.889400	0.713000	0.080200	0.098775
C1	C	0.601250	0.162210	0.065830	0.171040
C2	C	0.769990	0.258650	0.136730	0.171040
C3	C	0.630080	0.082040	0.004070	-0.245691
C4	C	0.805440	0.181780	0.077880	-0.245691
C5	C	0.734820	0.089660	0.010630	0.145596
C6	C	0.766310	0.000090	0.943630	-0.199817
C7	C	0.886850	0.000810	0.972550	-0.078872
C8	C	0.942740	0.954820	0.032620	0.123548
C9	C	0.052320	0.954260	0.058870	0.123548
C10	C	0.621300	0.552740	0.439830	0.171040
C11	C	0.600470	0.625250	0.335160	0.171040
C12	C	0.628600	0.652720	0.505490	-0.245691
C13	C	0.607730	0.727090	0.397010	-0.245691
C14	C	0.625200	0.743400	0.485730	0.145596
C15	C	0.641070	0.854170	0.559320	-0.199817
C16	C	0.568490	0.928490	0.527660	-0.078872
C17	C	0.467110	0.931070	0.530670	0.123548
C18	C	0.401740	0.001160	0.504710	0.123548
C19	C	0.837790	0.398750	0.434170	0.171040
C20	C	0.741350	0.230010	0.363270	0.171040
C21	C	0.917960	0.369920	0.495930	-0.245691
C22	C	0.818220	0.194560	0.422120	-0.245691
C23	C	0.910340	0.265180	0.489370	0.145596
C24	C	0.999910	0.233690	0.556370	-0.199817
C25	C	0.999190	0.113150	0.527450	-0.078872
C26	C	0.045180	0.057260	0.467380	0.123548
C27	C	0.045740	0.947680	0.441130	0.123548
C28	C	0.447260	0.378700	0.060170	0.171040
C29	C	0.374750	0.399530	0.164840	0.171040
C30	C	0.347280	0.371400	0.994510	-0.245691
C31	C	0.272910	0.392270	0.102990	-0.245691
C32	C	0.256600	0.374800	0.014270	0.145596
C33	C	0.145830	0.358930	0.940680	-0.199817
C34	C	0.071510	0.431510	0.972340	-0.078872
C35	C	0.068930	0.532890	0.969330	0.123548
C36	C	0.998840	0.598260	0.995290	0.123548
C37	C	0.398750	0.837790	0.934170	0.171040
C38	C	0.230010	0.741350	0.863270	0.171040
C39	C	0.369920	0.917960	0.995930	-0.245691
C40	C	0.194560	0.818220	0.922120	-0.245691
C41	C	0.265180	0.910340	0.989370	0.145596
C42	C	0.233690	0.999910	0.056370	-0.199817
C43	C	0.113150	0.999190	0.027450	-0.078872
C44	C	0.057260	0.045180	0.967380	0.123548
C45	C	0.947680	0.045740	0.941130	0.123548
C46	C	0.378700	0.447260	0.560170	0.171040
C47	C	0.399530	0.374750	0.664840	0.171040
C48	C	0.371400	0.347280	0.494510	-0.245691
C49	C	0.392270	0.272910	0.602990	-0.245691
C50	C	0.374800	0.256600	0.514270	0.145596
C51	C	0.358930	0.145830	0.440680	-0.199817
C52	C	0.431510	0.071510	0.472340	-0.078872
C53	C	0.532890	0.068930	0.469330	0.123548
C54	C	0.598260	0.998840	0.495290	0.123548
C55	C	0.162210	0.601250	0.565830	0.171040
C56	C	0.258650	0.769990	0.636730	0.171040
C57	C	0.082040	0.630080	0.504070	-0.245691
C58	C	0.181780	0.805440	0.577880	-0.245691
C59	C	0.089660	0.734820	0.510630	0.145596
C60	C	0.000090	0.766310	0.443630	-0.199817
C61	C	0.000810	0.886850	0.472550	-0.078872
C62	C	0.954820	0.942740	0.532620	0.123548
C63	C	0.954260	0.052320	0.558870	0.123548
C64	C	0.552740	0.621300	0.939830	0.171040
C65	C	0.625250	0.600470	0.835160	0.171040
C66	C	0.652720	0.628600	0.005490	-0.245691
C67	C	0.727090	0.607730	0.897010	-0.245691
C68	C	0.743400	0.625200	0.985730	0.145596
C69	C	0.854170	0.641070	0.059320	-0.199817
C70	C	0.928490	0.568490	0.027660	-0.078872
C71	C	0.931070	0.467110	0.030670	0.123548
C72	C	0.001160	0.401740	0.004710	0.123548
N1	N	0.669460	0.248800	0.132520	-0.361374
N2	N	0.609140	0.537660	0.355420	-0.361374
N3	N	0.751200	0.330540	0.367480	-0.361374
N4	N	0.462340	0.390860	0.144580	-0.361374
N5	N	0.330540	0.751200	0.867480	-0.361374
N6	N	0.390860	0.462340	0.644580	-0.361374
N7	N	0.248800	0.669460	0.632520	-0.361374
N8	N	0.537660	0.609140	0.855420	-0.361374
F1	F	0.888520	0.909460	0.066750	-0.181142
F2	F	0.100690	0.910490	0.120020	-0.181142
F3	F	0.431510	0.864710	0.561100	-0.181142
F4	F	0.304960	0.000340	0.511570	-0.181142
F5	F	0.090540	0.111480	0.433250	-0.181142
F6	F	0.089510	0.899310	0.379980	-0.181142
F7	F	0.135290	0.568490	0.938900	-0.181142
F8	F	0.999660	0.695040	0.988430	-0.181142
F9	F	0.111480	0.090540	0.933250	-0.181142
F10	F	0.899310	0.089510	0.879980	-0.181142
F11	F	0.568490	0.135290	0.438900	-0.181142
F12	F	0.695040	0.999660	0.488430	-0.181142
F13	F	0.909460	0.888520	0.566750	-0.181142
F14	F	0.910490	0.100690	0.620020	-0.181142
F15	F	0.864710	0.431510	0.061100	-0.181142
F16	F	0.000340	0.304960	0.011570	-0.181142
