data_MIHHIU_PM
_symmetry_space_group_name_H-M	'P1'
_cell_length_a	13.863900
_cell_length_b	15.101200
_cell_length_c	19.431300
_cell_angle_alpha	90.000000
_cell_angle_beta	90.000000
_cell_angle_gamma	90.000000
_symmetry_Int_Tables_number 1

loop_
_symmetry_equiv_pos_as_xyz
'x,y,z'

loop_
_atom_site_label
_atom_site_type_symbol
_atom_site_fract_x
_atom_site_fract_y
_atom_site_fract_z
_atom_site_charge
Cd1	Cd	0.798290	0.361430	0.035198	0.946408
Cd2	Cd	0.701710	0.638570	0.535198	0.946408
Cd3	Cd	0.201710	0.861430	0.464802	0.946408
Cd4	Cd	0.298290	0.138570	0.964802	0.946408
H1	H	0.741600	0.462000	0.892900	0.375546
H2	H	0.758400	0.538000	0.392900	0.375546
H3	H	0.258400	0.962000	0.607100	0.375546
H4	H	0.241600	0.038000	0.107100	0.375546
H5	H	0.943900	0.286900	0.371700	0.375546
H6	H	0.556100	0.713100	0.871700	0.375546
H7	H	0.056100	0.786900	0.128300	0.375546
H8	H	0.443900	0.213100	0.628300	0.375546
H9	H	0.583800	0.287100	0.942100	0.081148
H10	H	0.916200	0.712900	0.442100	0.081148
H11	H	0.416200	0.787100	0.557900	0.081148
H12	H	0.083800	0.212900	0.057900	0.081148
H13	H	0.729700	0.326500	0.893200	0.059542
H14	H	0.770300	0.673500	0.393200	0.059542
H15	H	0.270300	0.826500	0.606800	0.059542
H16	H	0.229700	0.173500	0.106800	0.059542
H17	H	0.431100	0.372600	0.086200	0.113450
H18	H	0.068900	0.627400	0.586200	0.113450
H19	H	0.568900	0.872600	0.413800	0.113450
H20	H	0.931100	0.127400	0.913800	0.113450
H21	H	0.835900	0.409900	0.295400	0.128515
H22	H	0.664100	0.590100	0.795400	0.128515
H23	H	0.164100	0.909900	0.204600	0.128515
H24	H	0.335900	0.090100	0.704600	0.128515
H25	H	0.509300	0.447200	0.893100	0.095931
H26	H	0.990700	0.552800	0.393100	0.095931
H27	H	0.490700	0.947200	0.606900	0.095931
H28	H	0.009300	0.052800	0.106900	0.095931
H29	H	0.457200	0.355000	0.898000	0.095931
H30	H	0.042800	0.645000	0.398000	0.095931
H31	H	0.542800	0.855000	0.602000	0.095931
H32	H	0.957200	0.145000	0.102000	0.095931
H33	H	0.616600	0.432200	0.764200	0.120919
H34	H	0.883400	0.567800	0.264200	0.120919
H35	H	0.383400	0.932200	0.735800	0.120919
H36	H	0.116600	0.067800	0.235800	0.120919
H37	H	0.385200	0.440300	0.982200	0.061317
H38	H	0.114800	0.559700	0.482200	0.061317
H39	H	0.614800	0.940300	0.517800	0.061317
H40	H	0.885200	0.059700	0.017800	0.061317
H41	H	0.823100	0.438200	0.179700	0.075839
H42	H	0.676900	0.561800	0.679700	0.075839
H43	H	0.176900	0.938200	0.320300	0.075839
H44	H	0.323100	0.061800	0.820300	0.075839
H45	H	0.567100	0.986900	0.776200	0.120944
H46	H	0.932900	0.013100	0.276200	0.120944
H47	H	0.432900	0.486900	0.723800	0.120944
H48	H	0.067100	0.513100	0.223800	0.120944
H49	H	0.701700	0.046400	0.116700	0.120944
H50	H	0.798300	0.953600	0.616700	0.120944
H51	H	0.298300	0.546400	0.383300	0.120944
H52	H	0.201700	0.453600	0.883300	0.120944
H53	H	0.741200	0.181800	0.080700	0.113955
H54	H	0.758800	0.818200	0.580700	0.113955
H55	H	0.258800	0.681800	0.419300	0.113955
H56	H	0.241200	0.318200	0.919300	0.113955
H57	H	0.585300	0.354600	0.104600	0.074793
H58	H	0.914700	0.645400	0.604600	0.074793
H59	H	0.414700	0.854600	0.395400	0.074793
H60	H	0.085300	0.145400	0.895400	0.074793
H61	H	0.582400	0.270900	0.056900	0.074793
H62	H	0.917600	0.729100	0.556900	0.074793
H63	H	0.417600	0.770900	0.443100	0.074793
H64	H	0.082400	0.229100	0.943100	0.074793
H65	H	0.664400	0.180000	0.898200	0.123733
H66	H	0.835600	0.820000	0.398200	0.123733
H67	H	0.335600	0.680000	0.601800	0.123733
H68	H	0.164400	0.320000	0.101800	0.123733
H69	H	0.490600	0.518000	0.063100	0.089598
H70	H	0.009400	0.482000	0.563100	0.089598
H71	H	0.509400	0.018000	0.436900	0.089598
H72	H	0.990600	0.982000	0.936900	0.089598
H73	H	0.500600	0.554700	0.987600	0.089598
H74	H	0.999400	0.445300	0.487600	0.089598
H75	H	0.499400	0.054700	0.512400	0.089598
H76	H	0.000600	0.945300	0.012400	0.089598
H77	H	0.530700	0.086500	0.692200	0.112043
H78	H	0.969300	0.913500	0.192200	0.112043
H79	H	0.469300	0.586500	0.807800	0.112043
H80	H	0.030700	0.413500	0.307800	0.112043
H81	H	0.743800	0.115000	0.312900	0.123733
H82	H	0.756200	0.885000	0.812900	0.123733
H83	H	0.256200	0.615000	0.187100	0.123733
H84	H	0.243800	0.385000	0.687100	0.123733
H85	H	0.812800	0.206400	0.379900	0.058640
H86	H	0.687200	0.793600	0.879900	0.058640
H87	H	0.187200	0.706400	0.120100	0.058640
H88	H	0.312800	0.293600	0.620100	0.058640
H89	H	0.650700	0.509300	0.979500	0.071426
H90	H	0.849300	0.490700	0.479500	0.071426
H91	H	0.349300	0.009300	0.520500	0.071426
H92	H	0.150700	0.990700	0.020500	0.071426
H93	H	0.647400	0.496500	0.059600	0.071426
H94	H	0.852600	0.503500	0.559600	0.071426
H95	H	0.352600	0.996500	0.440400	0.071426
H96	H	0.147400	0.003500	0.940400	0.071426
H97	H	0.547000	0.378300	0.667500	0.055776
H98	H	0.953000	0.621700	0.167500	0.055776
H99	H	0.453000	0.878300	0.832500	0.055776
H100	H	0.047000	0.121700	0.332500	0.055776
H101	H	0.668700	0.981600	0.987700	0.070655
H102	H	0.831300	0.018400	0.487700	0.070655
H103	H	0.331300	0.481600	0.512300	0.070655
H104	H	0.168700	0.518400	0.012300	0.070655
H105	H	0.606300	0.067200	0.977800	0.070655
H106	H	0.893700	0.932800	0.477800	0.070655
H107	H	0.393700	0.567200	0.522200	0.070655
H108	H	0.106300	0.432800	0.022200	0.070655
H109	H	0.716400	0.068600	0.959700	0.070655
H110	H	0.783600	0.931400	0.459700	0.070655
H111	H	0.283600	0.568600	0.540300	0.070655
H112	H	0.216400	0.431400	0.040300	0.070655
H113	H	0.736700	0.379800	0.401300	0.080874
H114	H	0.763300	0.620200	0.901300	0.080874
H115	H	0.263300	0.879800	0.098700	0.080874
H116	H	0.236700	0.120200	0.598700	0.080874
H117	H	0.793600	0.359200	0.505000	0.095126
H118	H	0.706400	0.640800	0.005000	0.095126
H119	H	0.206400	0.859200	0.995000	0.095126
H120	H	0.293600	0.140800	0.495000	0.095126
H121	H	0.790900	0.255300	0.499300	0.095126
H122	H	0.709100	0.744700	0.999300	0.095126
H123	H	0.209100	0.755300	0.000700	0.095126
H124	H	0.290900	0.244700	0.500700	0.095126
H125	H	0.667100	0.316000	0.578000	0.061317
H126	H	0.832900	0.684000	0.078000	0.061317
H127	H	0.332900	0.816000	0.922000	0.061317
H128	H	0.167100	0.184000	0.422000	0.061317
H129	H	0.530800	0.376400	0.523600	0.111053
H130	H	0.969200	0.623600	0.023600	0.111053
H131	H	0.469200	0.876400	0.976400	0.111053
H132	H	0.030800	0.123600	0.476400	0.111053
H133	H	0.639300	0.170900	0.537200	0.086688
H134	H	0.860700	0.829100	0.037200	0.086688
H135	H	0.360700	0.670900	0.962800	0.086688
H136	H	0.139300	0.329100	0.462800	0.086688
H137	H	0.540800	0.220800	0.526400	0.086688
H138	H	0.959200	0.779200	0.026400	0.086688
H139	H	0.459200	0.720800	0.973600	0.086688
H140	H	0.040800	0.279200	0.473600	0.086688
H141	H	0.503200	0.333400	0.420600	0.073755
H142	H	0.996800	0.666600	0.920600	0.073755
H143	H	0.496800	0.833400	0.079400	0.073755
H144	H	0.003200	0.166600	0.579400	0.073755
H145	H	0.574700	0.406800	0.394800	0.073755
H146	H	0.925300	0.593200	0.894800	0.073755
H147	H	0.425300	0.906800	0.105200	0.073755
H148	H	0.074700	0.093200	0.605200	0.073755
H149	H	0.666300	0.160700	0.426200	0.070238
H150	H	0.833700	0.839300	0.926200	0.070238
H151	H	0.333700	0.660700	0.073800	0.070238
H152	H	0.166300	0.339300	0.573800	0.070238
H153	H	0.555200	0.177900	0.418700	0.070238
H154	H	0.944800	0.822100	0.918700	0.070238
H155	H	0.444800	0.677900	0.081300	0.070238
H156	H	0.055200	0.322100	0.581300	0.070238
H157	H	0.657100	0.863900	0.221000	0.070655
H158	H	0.842900	0.136100	0.721000	0.070655
H159	H	0.342900	0.363900	0.279000	0.070655
H160	H	0.157100	0.636100	0.779000	0.070655
H161	H	0.738300	0.902300	0.173500	0.070655
H162	H	0.761700	0.097700	0.673500	0.070655
H163	H	0.261700	0.402300	0.326500	0.070655
H164	H	0.238300	0.597700	0.826500	0.070655
H165	H	0.630600	0.930100	0.161800	0.070655
H166	H	0.869400	0.069900	0.661800	0.070655
H167	H	0.369400	0.430100	0.338200	0.070655
H168	H	0.130600	0.569900	0.838200	0.070655
C1	C	0.597300	0.350500	0.937800	0.084737
C2	C	0.902700	0.649500	0.437800	0.084737
C3	C	0.402700	0.850500	0.562200	0.084737
C4	C	0.097300	0.149500	0.062200	0.084737
C5	C	0.671700	0.359700	0.880500	0.152520
C6	C	0.828300	0.640300	0.380500	0.152520
C7	C	0.328300	0.859700	0.619500	0.152520
C8	C	0.171700	0.140300	0.119500	0.152520
C9	C	0.798600	0.283300	0.292700	0.021158
C10	C	0.701400	0.716700	0.792700	0.021158
C11	C	0.201400	0.783300	0.207300	0.021158
C12	C	0.298600	0.216700	0.707300	0.021158
C13	C	0.461300	0.351200	0.043800	-0.268743
C14	C	0.038700	0.648800	0.543800	-0.268743
C15	C	0.538700	0.851200	0.456200	-0.268743
C16	C	0.961300	0.148800	0.956200	-0.268743
C17	C	0.767300	0.237400	0.174800	0.186308
C18	C	0.732700	0.762600	0.674800	0.186308
C19	C	0.232700	0.737400	0.325200	0.186308
C20	C	0.267300	0.262600	0.825200	0.186308
C21	C	0.629400	0.319900	0.815000	0.007186
C22	C	0.870600	0.680100	0.315000	0.007186
C23	C	0.370600	0.819900	0.685000	0.007186
C24	C	0.129400	0.180100	0.185000	0.007186
C25	C	0.817800	0.364300	0.266000	-0.188430
C26	C	0.682200	0.635700	0.766000	-0.188430
C27	C	0.182200	0.864300	0.234000	-0.188430
C28	C	0.317800	0.135700	0.734000	-0.188430
C29	C	0.499200	0.395900	0.922200	-0.246894
C30	C	0.000800	0.604100	0.422200	-0.246894
C31	C	0.500800	0.895900	0.577800	-0.246894
C32	C	0.999200	0.104100	0.077800	-0.246894
C33	C	0.614600	0.226200	0.806800	0.021840
C34	C	0.885400	0.773800	0.306800	0.021840
C35	C	0.385400	0.726200	0.693200	0.021840
C36	C	0.114600	0.273800	0.193200	0.021840
C37	C	0.769600	0.216400	0.246200	0.012576
C38	C	0.730400	0.783600	0.746200	0.012576
C39	C	0.230400	0.716400	0.253800	0.012576
C40	C	0.269600	0.283600	0.753800	0.012576
C41	C	0.604900	0.371700	0.761300	-0.212414
C42	C	0.895100	0.628300	0.261300	-0.212414
C43	C	0.395100	0.871700	0.738700	-0.212414
C44	C	0.104900	0.128300	0.238700	-0.212414
C45	C	0.572100	0.198700	0.743800	0.205904
C46	C	0.927900	0.801300	0.243800	0.205904
C47	C	0.427900	0.698700	0.756200	0.205904
C48	C	0.072100	0.301300	0.256200	0.205904
C49	C	0.452800	0.423900	0.989400	0.078454
C50	C	0.047200	0.576100	0.489400	0.078454
C51	C	0.547200	0.923900	0.510600	0.078454
C52	C	0.952800	0.076100	0.010600	0.078454
C53	C	0.404200	0.268800	0.018500	0.701183
C54	C	0.095800	0.731200	0.518500	0.701183
C55	C	0.595800	0.768800	0.481500	0.701183
C56	C	0.904200	0.231200	0.981500	0.701183
C57	C	0.811100	0.381000	0.195400	0.170647
C58	C	0.688900	0.619000	0.695400	0.170647
C59	C	0.188900	0.881000	0.304600	0.170647
C60	C	0.311100	0.119000	0.804600	0.170647
C61	C	0.579100	0.046900	0.783000	-0.208882
C62	C	0.920900	0.953100	0.283000	-0.208882
C63	C	0.420900	0.546900	0.717000	-0.208882
C64	C	0.079100	0.453100	0.217000	-0.208882
C65	C	0.718500	0.089400	0.148900	-0.198269
C66	C	0.781500	0.910600	0.648900	-0.198269
C67	C	0.281500	0.589400	0.351100	-0.198269
C68	C	0.218500	0.410600	0.851100	-0.198269
C69	C	0.741700	0.169500	0.127600	-0.141460
C70	C	0.758300	0.830500	0.627600	-0.141460
C71	C	0.258300	0.669500	0.372400	-0.141460
C72	C	0.241700	0.330500	0.872400	-0.141460
C73	C	0.569900	0.334000	0.058600	0.032235
C74	C	0.930100	0.666000	0.558600	0.032235
C75	C	0.430100	0.834000	0.441400	0.032235
C76	C	0.069900	0.166000	0.941400	0.032235
C77	C	0.637500	0.162400	0.856600	-0.245582
C78	C	0.862500	0.837600	0.356600	-0.245582
C79	C	0.362500	0.662400	0.643400	-0.245582
C80	C	0.137500	0.337600	0.143400	-0.245582
C81	C	0.511100	0.503400	0.016700	-0.227158
C82	C	0.988900	0.496600	0.516700	-0.227158
C83	C	0.488900	0.003400	0.483300	-0.227158
C84	C	0.011100	0.996600	0.983300	-0.227158
C85	C	0.556700	0.106200	0.733600	-0.129578
C86	C	0.943300	0.893800	0.233600	-0.129578
C87	C	0.443300	0.606200	0.766400	-0.129578
C88	C	0.056700	0.393800	0.266400	-0.129578
C89	C	0.743500	0.129400	0.266400	-0.244663
C90	C	0.756500	0.870600	0.766400	-0.244663
C91	C	0.256500	0.629400	0.233600	-0.244663
C92	C	0.243500	0.370600	0.733600	-0.244663
C93	C	0.812600	0.269800	0.369400	0.150797
C94	C	0.687400	0.730200	0.869400	0.150797
C95	C	0.187400	0.769800	0.130600	0.150797
C96	C	0.312600	0.230200	0.630600	0.150797
C97	C	0.718600	0.067300	0.220500	0.263106
C98	C	0.781400	0.932700	0.720500	0.263106
C99	C	0.281400	0.567300	0.279500	0.263106
C100	C	0.218600	0.432700	0.779500	0.263106
C101	C	0.618400	0.478000	0.016500	0.029956
C102	C	0.881600	0.522000	0.516500	0.029956
C103	C	0.381600	0.978000	0.483500	0.029956
C104	C	0.118400	0.022000	0.983500	0.029956
C105	C	0.563400	0.338900	0.702300	0.183811
C106	C	0.936600	0.661100	0.202300	0.183811
C107	C	0.436600	0.838900	0.797700	0.183811
C108	C	0.063400	0.161100	0.297700	0.183811
C109	C	0.621000	0.076700	0.845000	0.263106
C110	C	0.879000	0.923300	0.345000	0.263106
C111	C	0.379000	0.576700	0.655000	0.263106
C112	C	0.121000	0.423300	0.155000	0.263106
C113	C	0.658900	0.033200	0.959700	-0.014909
C114	C	0.841100	0.966800	0.459700	-0.014909
C115	C	0.341100	0.533200	0.540300	-0.014909
C116	C	0.158900	0.466800	0.040300	-0.014909
C117	C	0.734500	0.316700	0.413000	0.106565
C118	C	0.765500	0.683300	0.913000	0.106565
C119	C	0.265500	0.816700	0.087000	0.106565
C120	C	0.234500	0.183300	0.587000	0.106565
C121	C	0.755200	0.309200	0.489900	-0.240932
C122	C	0.744800	0.690800	0.989900	-0.240932
C123	C	0.244800	0.809200	0.010100	-0.240932
C124	C	0.255200	0.190800	0.510100	-0.240932
C125	C	0.658000	0.307800	0.528400	0.073090
C126	C	0.842000	0.692200	0.028400	0.073090
C127	C	0.342000	0.807800	0.971600	0.073090
C128	C	0.158000	0.192200	0.471600	0.073090
C129	C	0.591800	0.379300	0.498200	-0.270179
C130	C	0.908200	0.620700	0.998200	-0.270179
C131	C	0.408200	0.879300	0.001800	-0.270179
C132	C	0.091800	0.120700	0.501800	-0.270179
C133	C	0.607900	0.218600	0.512500	-0.221371
C134	C	0.892100	0.781400	0.012500	-0.221371
C135	C	0.392100	0.718600	0.987500	-0.221371
C136	C	0.107900	0.281400	0.487500	-0.221371
C137	C	0.633000	0.473900	0.509100	0.701686
C138	C	0.867000	0.526100	0.009100	0.701686
C139	C	0.367000	0.973900	0.990900	0.701686
C140	C	0.133000	0.026100	0.490900	0.701686
C141	C	0.569200	0.354500	0.423500	0.038511
C142	C	0.930800	0.645500	0.923500	0.038511
C143	C	0.430800	0.854500	0.076500	0.038511
C144	C	0.069200	0.145500	0.576500	0.038511
C145	C	0.615300	0.203200	0.435100	0.041313
C146	C	0.884700	0.796800	0.935100	0.041313
C147	C	0.384700	0.703200	0.064900	0.041313
C148	C	0.115300	0.296800	0.564900	0.041313
C149	C	0.678100	0.915000	0.195800	-0.014909
C150	C	0.821900	0.085000	0.695800	-0.014909
C151	C	0.321900	0.415000	0.304200	-0.014909
C152	C	0.178100	0.585000	0.804200	-0.014909
N1	N	0.633300	0.380500	0.007400	-0.280024
N2	N	0.866700	0.619500	0.507400	-0.280024
N3	N	0.366700	0.880500	0.492600	-0.280024
N4	N	0.133300	0.119500	0.992600	-0.280024
N5	N	0.788700	0.319800	0.150300	-0.384234
N6	N	0.711300	0.680200	0.650300	-0.384234
N7	N	0.211300	0.819800	0.349700	-0.384234
N8	N	0.288700	0.180200	0.849700	-0.384234
N9	N	0.545900	0.254500	0.693100	-0.442202
N10	N	0.954100	0.745500	0.193100	-0.442202
N11	N	0.454100	0.754500	0.806900	-0.442202
N12	N	0.045900	0.245500	0.306900	-0.442202
N13	N	0.635300	0.284700	0.397000	-0.281385
N14	N	0.864700	0.715300	0.897000	-0.281385
N15	N	0.364700	0.784700	0.103000	-0.281385
N16	N	0.135300	0.215300	0.603000	-0.281385
O1	O	0.697000	0.447600	0.867550	-0.595288
O2	O	0.803000	0.552400	0.367550	-0.595288
O3	O	0.303000	0.947600	0.632450	-0.595288
O4	O	0.197000	0.052400	0.132450	-0.595288
O5	O	0.315000	0.270900	0.024800	-0.626791
O6	O	0.185000	0.729100	0.524800	-0.626791
O7	O	0.685000	0.770900	0.475200	-0.626791
O8	O	0.815000	0.229100	0.975200	-0.626791
O9	O	0.898100	0.308300	0.392700	-0.593124
O10	O	0.601900	0.691700	0.892700	-0.593124
O11	O	0.101900	0.808300	0.107300	-0.593124
O12	O	0.398100	0.191700	0.607300	-0.593124
O13	O	0.448800	0.206000	0.990900	-0.626791
O14	O	0.051200	0.794000	0.490900	-0.626791
O15	O	0.551200	0.706000	0.509100	-0.626791
O16	O	0.948800	0.294000	0.009100	-0.626791
O17	O	0.637300	0.007000	0.891700	-0.264588
O18	O	0.862700	0.993000	0.391700	-0.264588
O19	O	0.362700	0.507000	0.608300	-0.264588
O20	O	0.137300	0.493000	0.108300	-0.264588
O21	O	0.690200	0.985600	0.240700	-0.264588
O22	O	0.809800	0.014400	0.740700	-0.264588
O23	O	0.309800	0.485600	0.259300	-0.264588
O24	O	0.190200	0.514400	0.759300	-0.264588
O25	O	0.649400	0.497800	0.568500	-0.626791
O26	O	0.850600	0.502200	0.068500	-0.626791
O27	O	0.350600	0.997800	0.931500	-0.626791
O28	O	0.149400	0.002200	0.431500	-0.626791
O29	O	0.653300	0.520900	0.458400	-0.626791
O30	O	0.846700	0.479100	0.958400	-0.626791
O31	O	0.346700	0.020900	0.041600	-0.626791
O32	O	0.153300	0.979100	0.541600	-0.626791
