data_MIL-88A-dry_PM
_symmetry_space_group_name_H-M	'P1'
_cell_length_a	9.779800
_cell_length_b	9.779800
_cell_length_c	14.826500
_cell_angle_alpha	90.000000
_cell_angle_beta	90.000000
_cell_angle_gamma	120.000001
_symmetry_Int_Tables_number 1

loop_
_symmetry_equiv_pos_as_xyz
'x,y,z'

loop_
_atom_site_label
_atom_site_type_symbol
_atom_site_fract_x
_atom_site_fract_y
_atom_site_fract_z
_atom_site_charge
Fe1	Fe	0.785200	0.214800	0.250000	1.216948
Fe2	Fe	0.785200	0.570400	0.250000	1.216948
Fe3	Fe	0.429600	0.214800	0.250000	1.216948
Fe4	Fe	0.214800	0.785200	0.750000	1.216948
Fe5	Fe	0.570400	0.785200	0.750000	1.216948
Fe6	Fe	0.214800	0.429600	0.750000	1.216948
H1	H	0.587800	0.175600	0.977100	0.148007
H2	H	0.824400	0.412200	0.977100	0.148007
H3	H	0.587800	0.412200	0.977100	0.148007
H4	H	0.587800	0.175600	0.522900	0.148007
H5	H	0.824400	0.412200	0.522900	0.148007
H6	H	0.587800	0.412200	0.522900	0.148007
H7	H	0.175600	0.587800	0.022900	0.148007
H8	H	0.412200	0.824400	0.022900	0.148007
H9	H	0.412200	0.587800	0.022900	0.148007
H10	H	0.175600	0.587800	0.477100	0.148007
H11	H	0.412200	0.824400	0.477100	0.148007
H12	H	0.412200	0.587800	0.477100	0.148007
C1	C	0.542900	0.085900	0.115700	0.688151
C2	C	0.914100	0.457000	0.115700	0.688151
C3	C	0.543000	0.457100	0.115700	0.688151
C4	C	0.542900	0.085900	0.384300	0.688151
C5	C	0.914100	0.457000	0.384300	0.688151
C6	C	0.543000	0.457100	0.384300	0.688151
C7	C	0.085900	0.542900	0.884300	0.688151
C8	C	0.457000	0.914100	0.884300	0.688151
C9	C	0.457100	0.543000	0.884300	0.688151
C10	C	0.085900	0.542900	0.615700	0.688151
C11	C	0.457000	0.914100	0.615700	0.688151
C12	C	0.457100	0.543000	0.615700	0.688151
C13	C	0.535400	0.070800	0.018600	-0.158632
C14	C	0.929200	0.464600	0.018600	-0.158632
C15	C	0.535400	0.464600	0.018600	-0.158632
C16	C	0.535400	0.070800	0.481400	-0.158632
C17	C	0.929200	0.464600	0.481400	-0.158632
C18	C	0.535400	0.464600	0.481400	-0.158632
C19	C	0.070800	0.535400	0.981400	-0.158632
C20	C	0.464600	0.929200	0.981400	-0.158632
C21	C	0.464600	0.535400	0.981400	-0.158632
C22	C	0.070800	0.535400	0.518600	-0.158632
C23	C	0.464600	0.929200	0.518600	-0.158632
C24	C	0.464600	0.535400	0.518600	-0.158632
O1	O	0.440000	0.110000	0.150000	-0.496575
O2	O	0.890000	0.330000	0.150000	-0.496575
O3	O	0.670000	0.560000	0.150000	-0.496575
O4	O	0.440000	0.110000	0.350000	-0.496575
O5	O	0.890000	0.330000	0.350000	-0.496575
O6	O	0.670000	0.560000	0.350000	-0.496575
O7	O	0.110000	0.440000	0.850000	-0.496575
O8	O	0.330000	0.890000	0.850000	-0.496575
O9	O	0.560000	0.670000	0.850000	-0.496575
O10	O	0.110000	0.440000	0.650000	-0.496575
O11	O	0.330000	0.890000	0.650000	-0.496575
O12	O	0.560000	0.670000	0.650000	-0.496575
O13	O	0.656800	0.077300	0.159700	-0.496575
O14	O	0.922700	0.579500	0.159700	-0.496575
O15	O	0.420500	0.343200	0.159700	-0.496575
O16	O	0.656800	0.077300	0.340300	-0.496575
O17	O	0.922700	0.579500	0.340300	-0.496575
O18	O	0.420500	0.343200	0.340300	-0.496575
O19	O	0.077300	0.656800	0.840300	-0.496575
O20	O	0.579500	0.922700	0.840300	-0.496575
O21	O	0.343200	0.420500	0.840300	-0.496575
O22	O	0.077300	0.656800	0.659700	-0.496575
O23	O	0.579500	0.922700	0.659700	-0.496575
O24	O	0.343200	0.420500	0.659700	-0.496575
O25	O	0.666700	0.333300	0.250000	-0.699000
O26	O	0.333300	0.666700	0.750000	-0.699000
O27	O	0.897700	0.102300	0.250000	-0.352701
O28	O	0.897700	0.795400	0.250000	-0.352701
O29	O	0.204600	0.102300	0.250000	-0.352701
O30	O	0.102300	0.897700	0.750000	-0.352701
O31	O	0.795400	0.897700	0.750000	-0.352701
O32	O	0.102300	0.204600	0.750000	-0.352701
