data_MINVUA01_clean_PM
_symmetry_space_group_name_H-M	'P1'
_cell_length_a	6.812000
_cell_length_b	11.139900
_cell_length_c	11.139895
_cell_angle_alpha	97.361528
_cell_angle_beta	107.803124
_cell_angle_gamma	107.803102
_symmetry_Int_Tables_number 1

loop_
_symmetry_equiv_pos_as_xyz
'x,y,z'

loop_
_atom_site_label
_atom_site_type_symbol
_atom_site_fract_x
_atom_site_fract_y
_atom_site_fract_z
_atom_site_charge
Cr1	Cr	0.000000	0.000000	0.500000	1.659626
Cr2	Cr	0.500000	0.000000	0.500000	1.659626
H1	H	0.362490	0.948110	0.097640	0.117375
H2	H	0.683260	0.597640	0.448110	0.117375
H3	H	0.637510	0.402360	0.551890	0.117375
H4	H	0.316740	0.051890	0.902360	0.117375
H5	H	0.637510	0.051890	0.902360	0.117375
H6	H	0.316740	0.402360	0.551890	0.117375
H7	H	0.362490	0.597640	0.448110	0.117375
H8	H	0.683260	0.948110	0.097640	0.117375
C1	C	0.214000	0.978000	0.058000	-0.045016
C2	C	0.822000	0.558000	0.478000	-0.045016
C3	C	0.786000	0.442000	0.522000	-0.045016
C4	C	0.178000	0.022000	0.942000	-0.045016
C5	C	0.786000	0.022000	0.942000	-0.045016
C6	C	0.178000	0.442000	0.522000	-0.045016
C7	C	0.214000	0.558000	0.478000	-0.045016
C8	C	0.822000	0.978000	0.058000	-0.045016
C9	C	0.039000	0.985000	0.093000	-0.091047
C10	C	0.112000	0.987000	0.237000	0.734938
C11	C	0.039000	0.593000	0.485000	-0.091047
C12	C	0.112000	0.737000	0.487000	0.734938
C13	C	0.961000	0.407000	0.515000	-0.091047
C14	C	0.888000	0.263000	0.513000	0.734938
C15	C	0.961000	0.015000	0.907000	-0.091047
C16	C	0.888000	0.013000	0.763000	0.734938
O1	O	0.313000	0.991000	0.323000	-0.612308
O2	O	0.001000	0.823000	0.491000	-0.612308
O3	O	0.687000	0.177000	0.509000	-0.612308
O4	O	0.999000	0.009000	0.677000	-0.612308
O5	O	0.687000	0.009000	0.677000	-0.612308
O6	O	0.999000	0.177000	0.509000	-0.612308
O7	O	0.313000	0.823000	0.491000	-0.612308
O8	O	0.001000	0.991000	0.323000	-0.612308
O9	O	0.314000	0.064000	0.564000	-0.787611
O10	O	0.686000	0.936000	0.436000	-0.787611
