data_MOCHES_clean_PM
_symmetry_space_group_name_H-M	'P1'
_cell_length_a	6.676400
_cell_length_b	7.068400
_cell_length_c	7.810300
_cell_angle_alpha	111.141002
_cell_angle_beta	95.415002
_cell_angle_gamma	90.457001
_symmetry_Int_Tables_number 1

loop_
_symmetry_equiv_pos_as_xyz
'x,y,z'

loop_
_atom_site_label
_atom_site_type_symbol
_atom_site_fract_x
_atom_site_fract_y
_atom_site_fract_z
_atom_site_charge
Pr1	Pr	0.868200	0.777210	0.065930	2.291478
Pr2	Pr	0.131800	0.222790	0.934070	2.291478
P1	P	0.325020	0.747460	0.979270	1.604928
P2	P	0.674980	0.252540	0.020730	1.604928
H1	H	0.362200	0.720400	0.797800	-0.221692
H2	H	0.637800	0.279600	0.202200	-0.221692
C1	C	0.061000	0.908300	0.500600	0.558437
C2	C	0.939000	0.091700	0.499400	0.558437
O1	O	0.198500	0.937400	0.034100	-1.028804
O2	O	0.519800	0.771900	0.101300	-0.893655
O3	O	0.183200	0.574700	0.975000	-1.028804
O4	O	0.052200	0.759900	0.352200	-0.640944
O5	O	0.839700	0.076000	0.350900	-0.640944
O6	O	0.801500	0.062600	0.965900	-1.028804
O7	O	0.480200	0.228100	0.898700	-0.893655
O8	O	0.816800	0.425300	0.025000	-1.028804
O9	O	0.947800	0.240100	0.647800	-0.640944
O10	O	0.160300	0.924000	0.649100	-0.640944
