data_MUJRIT_clean_PM
_symmetry_space_group_name_H-M	'P1'
_cell_length_a	10.615000
_cell_length_b	14.588900
_cell_length_c	29.856000
_cell_angle_alpha	90.000000
_cell_angle_beta	90.395001
_cell_angle_gamma	90.000000
_symmetry_Int_Tables_number 1

loop_
_symmetry_equiv_pos_as_xyz
'x,y,z'

loop_
_atom_site_label
_atom_site_type_symbol
_atom_site_fract_x
_atom_site_fract_y
_atom_site_fract_z
_atom_site_charge
Cd1	Cd	0.354570	0.166250	0.224680	0.940183
Cd2	Cd	0.814760	0.958730	0.250480	0.940183
Cd3	Cd	0.645430	0.666250	0.275320	0.940183
Cd4	Cd	0.185240	0.458730	0.249520	0.940183
Cd5	Cd	0.645430	0.833750	0.775320	0.940183
Cd6	Cd	0.185240	0.041270	0.749520	0.940183
Cd7	Cd	0.354570	0.333750	0.724680	0.940183
Cd8	Cd	0.814760	0.541270	0.750480	0.940183
H1	H	0.107400	0.874900	0.157200	0.094866
H2	H	0.140100	0.027700	0.174100	0.110836
H3	H	0.698000	0.427900	0.206000	0.094866
H4	H	0.884300	0.503200	0.220800	0.110836
H5	H	0.472100	0.347100	0.182200	0.082339
H6	H	0.562800	0.402500	0.117200	0.131016
H7	H	0.354700	0.218400	0.050500	0.131016
H8	H	0.279600	0.167900	0.118800	0.082339
H9	H	0.345900	0.364500	0.999400	0.128189
H10	H	0.786400	0.418600	0.988800	0.128189
H11	H	0.549400	0.362700	0.868500	0.131016
H12	H	0.619800	0.411400	0.800100	0.082339
H13	H	0.873600	0.567000	0.856600	0.082339
H14	H	0.810300	0.521100	0.926400	0.131016
H15	H	0.254800	0.362900	0.942400	0.074182
H16	H	0.264900	0.456200	0.969300	0.074182
H17	H	0.254400	0.447900	0.873900	0.059402
H18	H	0.256700	0.539900	0.901800	0.059402
H19	H	0.068300	0.415900	0.905000	0.380026
H20	H	0.937400	0.163600	0.114300	0.380026
H21	H	0.905100	0.403300	0.055900	0.074182
H22	H	0.880300	0.321000	0.023900	0.074182
H23	H	0.923900	0.301400	0.114200	0.059402
H24	H	0.031700	0.303400	0.079900	0.059402
H25	H	0.892600	0.374900	0.342800	0.094866
H26	H	0.859900	0.527700	0.325900	0.110836
H27	H	0.302000	0.927900	0.294000	0.094866
H28	H	0.115700	0.003200	0.279200	0.110836
H29	H	0.527900	0.847100	0.317800	0.082339
H30	H	0.437200	0.902500	0.382800	0.131016
H31	H	0.645300	0.718400	0.449500	0.131016
H32	H	0.720400	0.667900	0.381200	0.082339
H33	H	0.654100	0.864500	0.500600	0.128189
H34	H	0.213600	0.918600	0.511200	0.128189
H35	H	0.450600	0.862700	0.631500	0.131016
H36	H	0.380200	0.911400	0.699900	0.082339
H37	H	0.126400	0.067000	0.643400	0.082339
H38	H	0.189700	0.021100	0.573600	0.131016
H39	H	0.745200	0.862900	0.557600	0.074182
H40	H	0.735100	0.956200	0.530700	0.074182
H41	H	0.745600	0.947900	0.626100	0.059402
H42	H	0.743300	0.039900	0.598200	0.059402
H43	H	0.931700	0.915900	0.595000	0.380026
H44	H	0.062600	0.663600	0.385700	0.380026
H45	H	0.094900	0.903300	0.444100	0.074182
H46	H	0.119700	0.821000	0.476100	0.074182
H47	H	0.076100	0.801400	0.385800	0.059402
H48	H	0.968300	0.803400	0.420100	0.059402
H49	H	0.892600	0.125100	0.842800	0.094866
H50	H	0.859900	0.972300	0.825900	0.110836
H51	H	0.302000	0.572100	0.794000	0.094866
H52	H	0.115700	0.496800	0.779200	0.110836
H53	H	0.527900	0.652900	0.817800	0.082339
H54	H	0.437200	0.597500	0.882800	0.131016
H55	H	0.645300	0.781600	0.949500	0.131016
H56	H	0.720400	0.832100	0.881200	0.082339
H57	H	0.654100	0.635500	0.000600	0.128189
H58	H	0.213600	0.581400	0.011200	0.128189
H59	H	0.450600	0.637300	0.131500	0.131016
H60	H	0.380200	0.588600	0.199900	0.082339
H61	H	0.126400	0.433000	0.143400	0.082339
H62	H	0.189700	0.478900	0.073600	0.131016
H63	H	0.745200	0.637100	0.057600	0.074182
H64	H	0.735100	0.543800	0.030700	0.074182
H65	H	0.745600	0.552100	0.126100	0.059402
H66	H	0.743300	0.460100	0.098200	0.059402
H67	H	0.931700	0.584100	0.095000	0.380026
H68	H	0.062600	0.836400	0.885700	0.380026
H69	H	0.094900	0.596700	0.944100	0.074182
H70	H	0.119700	0.679000	0.976100	0.074182
H71	H	0.076100	0.698600	0.885800	0.059402
H72	H	0.968300	0.696600	0.920100	0.059402
H73	H	0.107400	0.625100	0.657200	0.094866
H74	H	0.140100	0.472300	0.674100	0.110836
H75	H	0.698000	0.072100	0.706000	0.094866
H76	H	0.884300	0.996800	0.720800	0.110836
H77	H	0.472100	0.152900	0.682200	0.082339
H78	H	0.562800	0.097500	0.617200	0.131016
H79	H	0.354700	0.281600	0.550500	0.131016
H80	H	0.279600	0.332100	0.618800	0.082339
H81	H	0.345900	0.135500	0.499400	0.128189
H82	H	0.786400	0.081400	0.488800	0.128189
H83	H	0.549400	0.137300	0.368500	0.131016
H84	H	0.619800	0.088600	0.300100	0.082339
H85	H	0.873600	0.933000	0.356600	0.082339
H86	H	0.810300	0.978900	0.426400	0.131016
H87	H	0.254800	0.137100	0.442400	0.074182
H88	H	0.264900	0.043800	0.469300	0.074182
H89	H	0.254400	0.052100	0.373900	0.059402
H90	H	0.256700	0.960100	0.401800	0.059402
H91	H	0.068300	0.084100	0.405000	0.380026
H92	H	0.937400	0.336400	0.614300	0.380026
H93	H	0.905100	0.096700	0.555900	0.074182
H94	H	0.880300	0.179000	0.523900	0.074182
H95	H	0.923900	0.198600	0.614200	0.059402
H96	H	0.031700	0.196600	0.579900	0.059402
C1	C	0.411500	0.956400	0.199770	0.042251
C2	C	0.398600	0.863500	0.191600	0.085786
C3	C	0.184900	0.894400	0.168300	0.125382
C4	C	0.205400	0.986100	0.178450	0.095415
C5	C	0.534000	0.997200	0.217420	0.635151
C6	C	0.499700	0.792700	0.201770	0.600644
C7	C	0.993500	0.303800	0.218610	0.042251
C8	C	0.883500	0.254500	0.210700	0.085786
C9	C	0.772000	0.394500	0.209700	0.125382
C10	C	0.884500	0.439700	0.218230	0.095415
C11	C	0.122000	0.258000	0.220700	0.635151
C12	C	0.879500	0.151300	0.205500	0.600644
C13	C	0.463700	0.313700	0.155800	0.184696
C14	C	0.508300	0.352600	0.116300	-0.207548
C15	C	0.470300	0.315700	0.075600	0.119368
C16	C	0.385800	0.243300	0.077000	-0.207548
C17	C	0.347500	0.208100	0.117800	0.184696
C18	C	0.501400	0.398800	0.960400	0.213952
C19	C	0.630200	0.402900	0.949900	-0.033541
C20	C	0.517300	0.351800	0.033600	-0.033541
C21	C	0.433100	0.370300	0.998100	-0.209272
C22	C	0.703500	0.398000	0.988400	-0.209272
C23	C	0.647500	0.360500	0.026500	0.213952
C24	C	0.672500	0.435300	0.905900	0.119368
C25	C	0.616000	0.404100	0.867000	-0.207548
C26	C	0.658300	0.434200	0.825880	0.184696
C27	C	0.807500	0.525500	0.858900	0.184696
C28	C	0.769900	0.497700	0.901100	-0.207548
C29	C	0.283800	0.425900	0.941300	0.057518
C30	C	0.229600	0.476400	0.901900	0.142431
C31	C	0.869000	0.342000	0.054300	0.057518
C32	C	0.947000	0.281400	0.084000	0.142431
C33	C	0.588500	0.456400	0.300230	0.042251
C34	C	0.601400	0.363500	0.308400	0.085786
C35	C	0.815100	0.394400	0.331700	0.125382
C36	C	0.794600	0.486100	0.321550	0.095415
C37	C	0.466000	0.497200	0.282580	0.635151
C38	C	0.500300	0.292700	0.298230	0.600644
C39	C	0.006500	0.803800	0.281390	0.042251
C40	C	0.116500	0.754500	0.289300	0.085786
C41	C	0.228000	0.894500	0.290300	0.125382
C42	C	0.115500	0.939700	0.281770	0.095415
C43	C	0.878000	0.758000	0.279300	0.635151
C44	C	0.120500	0.651300	0.294500	0.600644
C45	C	0.536300	0.813700	0.344200	0.184696
C46	C	0.491700	0.852600	0.383700	-0.207548
C47	C	0.529700	0.815700	0.424400	0.119368
C48	C	0.614200	0.743300	0.423000	-0.207548
C49	C	0.652500	0.708100	0.382200	0.184696
C50	C	0.498600	0.898800	0.539600	0.213952
C51	C	0.369800	0.902900	0.550100	-0.033541
C52	C	0.482700	0.851800	0.466400	-0.033541
C53	C	0.566900	0.870300	0.501900	-0.209272
C54	C	0.296500	0.898000	0.511600	-0.209272
C55	C	0.352500	0.860500	0.473500	0.213952
C56	C	0.327500	0.935300	0.594100	0.119368
C57	C	0.384000	0.904100	0.633000	-0.207548
C58	C	0.341700	0.934200	0.674120	0.184696
C59	C	0.192500	0.025500	0.641100	0.184696
C60	C	0.230100	0.997700	0.598900	-0.207548
C61	C	0.716200	0.925900	0.558700	0.057518
C62	C	0.770400	0.976400	0.598100	0.142431
C63	C	0.131000	0.842000	0.445700	0.057518
C64	C	0.053000	0.781400	0.416000	0.142431
C65	C	0.588500	0.043600	0.800230	0.042251
C66	C	0.601400	0.136500	0.808400	0.085786
C67	C	0.815100	0.105600	0.831700	0.125382
C68	C	0.794600	0.013900	0.821550	0.095415
C69	C	0.466000	0.002800	0.782580	0.635151
C70	C	0.500300	0.207300	0.798230	0.600644
C71	C	0.006500	0.696200	0.781390	0.042251
C72	C	0.116500	0.745500	0.789300	0.085786
C73	C	0.228000	0.605500	0.790300	0.125382
C74	C	0.115500	0.560300	0.781770	0.095415
C75	C	0.878000	0.742000	0.779300	0.635151
C76	C	0.120500	0.848700	0.794500	0.600644
C77	C	0.536300	0.686300	0.844200	0.184696
C78	C	0.491700	0.647400	0.883700	-0.207548
C79	C	0.529700	0.684300	0.924400	0.119368
C80	C	0.614200	0.756700	0.923000	-0.207548
C81	C	0.652500	0.791900	0.882200	0.184696
C82	C	0.498600	0.601200	0.039600	0.213952
C83	C	0.369800	0.597100	0.050100	-0.033541
C84	C	0.482700	0.648200	0.966400	-0.033541
C85	C	0.566900	0.629700	0.001900	-0.209272
C86	C	0.296500	0.602000	0.011600	-0.209272
C87	C	0.352500	0.639500	0.973500	0.213952
C88	C	0.327500	0.564700	0.094100	0.119368
C89	C	0.384000	0.595900	0.133000	-0.207548
C90	C	0.341700	0.565800	0.174120	0.184696
C91	C	0.192500	0.474500	0.141100	0.184696
C92	C	0.230100	0.502300	0.098900	-0.207548
C93	C	0.716200	0.574100	0.058700	0.057518
C94	C	0.770400	0.523600	0.098100	0.142431
C95	C	0.131000	0.658000	0.945700	0.057518
C96	C	0.053000	0.718600	0.916000	0.142431
C97	C	0.411500	0.543600	0.699770	0.042251
C98	C	0.398600	0.636500	0.691600	0.085786
C99	C	0.184900	0.605600	0.668300	0.125382
C100	C	0.205400	0.513900	0.678450	0.095415
C101	C	0.534000	0.502800	0.717420	0.635151
C102	C	0.499700	0.707300	0.701770	0.600644
C103	C	0.993500	0.196200	0.718610	0.042251
C104	C	0.883500	0.245500	0.710700	0.085786
C105	C	0.772000	0.105500	0.709700	0.125382
C106	C	0.884500	0.060300	0.718230	0.095415
C107	C	0.122000	0.242000	0.720700	0.635151
C108	C	0.879500	0.348700	0.705500	0.600644
C109	C	0.463700	0.186300	0.655800	0.184696
C110	C	0.508300	0.147400	0.616300	-0.207548
C111	C	0.470300	0.184300	0.575600	0.119368
C112	C	0.385800	0.256700	0.577000	-0.207548
C113	C	0.347500	0.291900	0.617800	0.184696
C114	C	0.501400	0.101200	0.460400	0.213952
C115	C	0.630200	0.097100	0.449900	-0.033541
C116	C	0.517300	0.148200	0.533600	-0.033541
C117	C	0.433100	0.129700	0.498100	-0.209272
C118	C	0.703500	0.102000	0.488400	-0.209272
C119	C	0.647500	0.139500	0.526500	0.213952
C120	C	0.672500	0.064700	0.405900	0.119368
C121	C	0.616000	0.095900	0.367000	-0.207548
C122	C	0.658300	0.065800	0.325880	0.184696
C123	C	0.807500	0.974500	0.358900	0.184696
C124	C	0.769900	0.002300	0.401100	-0.207548
C125	C	0.283800	0.074100	0.441300	0.057518
C126	C	0.229600	0.023600	0.401900	0.142431
C127	C	0.869000	0.158000	0.554300	0.057518
C128	C	0.947000	0.218600	0.584000	0.142431
N1	N	0.316200	0.016700	0.194210	-0.323745
N2	N	0.282300	0.832100	0.175200	-0.352329
N3	N	0.993600	0.394500	0.222830	-0.323745
N4	N	0.769600	0.301400	0.206800	-0.352329
N5	N	0.410500	0.232700	0.157900	-0.347597
N6	N	0.752800	0.495200	0.821510	-0.347597
N7	N	0.683800	0.516700	0.305790	-0.323745
N8	N	0.717700	0.332100	0.324800	-0.352329
N9	N	0.006400	0.894500	0.277170	-0.323745
N10	N	0.230400	0.801400	0.293200	-0.352329
N11	N	0.589500	0.732700	0.342100	-0.347597
N12	N	0.247200	0.995200	0.678490	-0.347597
N13	N	0.683800	0.983300	0.805790	-0.323745
N14	N	0.717700	0.167900	0.824800	-0.352329
N15	N	0.006400	0.605500	0.777170	-0.323745
N16	N	0.230400	0.698600	0.793200	-0.352329
N17	N	0.589500	0.767300	0.842100	-0.347597
N18	N	0.247200	0.504800	0.178490	-0.347597
N19	N	0.316200	0.483300	0.694210	-0.323745
N20	N	0.282300	0.667900	0.675200	-0.352329
N21	N	0.993600	0.105500	0.722830	-0.323745
N22	N	0.769600	0.198600	0.706800	-0.352329
N23	N	0.410500	0.267300	0.657900	-0.347597
N24	N	0.752800	0.004800	0.321510	-0.347597
O1	O	0.538300	0.079700	0.227670	-0.585977
O2	O	0.624600	0.941600	0.219330	-0.585977
O3	O	0.503400	0.764500	0.241010	-0.593701
O4	O	0.563400	0.762700	0.169250	-0.570125
O5	O	0.215700	0.305400	0.233280	-0.585977
O6	O	0.130400	0.176200	0.209430	-0.585977
O7	O	0.868400	0.118000	0.166850	-0.570125
O8	O	0.879800	0.108500	0.241760	-0.593701
O9	O	0.420200	0.432000	0.930100	-0.252539
O10	O	0.090700	0.469200	0.908600	-0.565368
O11	O	0.728600	0.352700	0.061300	-0.252539
O12	O	0.963500	0.179500	0.089700	-0.565368
O13	O	0.461700	0.579700	0.272330	-0.585977
O14	O	0.375400	0.441600	0.280670	-0.585977
O15	O	0.496600	0.264500	0.258990	-0.593701
O16	O	0.436600	0.262700	0.330750	-0.570125
O17	O	0.784300	0.805400	0.266720	-0.585977
O18	O	0.869600	0.676200	0.290570	-0.585977
O19	O	0.131600	0.618000	0.333150	-0.570125
O20	O	0.120200	0.608500	0.258240	-0.593701
O21	O	0.579800	0.932000	0.569900	-0.252539
O22	O	0.909300	0.969200	0.591400	-0.565368
O23	O	0.271400	0.852700	0.438700	-0.252539
O24	O	0.036500	0.679500	0.410300	-0.565368
O25	O	0.461700	0.920300	0.772330	-0.585977
O26	O	0.375400	0.058400	0.780670	-0.585977
O27	O	0.496600	0.235500	0.758990	-0.593701
O28	O	0.436600	0.237300	0.830750	-0.570125
O29	O	0.784300	0.694600	0.766720	-0.585977
O30	O	0.869600	0.823800	0.790570	-0.585977
O31	O	0.131600	0.882000	0.833150	-0.570125
O32	O	0.120200	0.891500	0.758240	-0.593701
O33	O	0.579800	0.568000	0.069900	-0.252539
O34	O	0.909300	0.530800	0.091400	-0.565368
O35	O	0.271400	0.647300	0.938700	-0.252539
O36	O	0.036500	0.820500	0.910300	-0.565368
O37	O	0.538300	0.420300	0.727670	-0.585977
O38	O	0.624600	0.558400	0.719330	-0.585977
O39	O	0.503400	0.735500	0.741010	-0.593701
O40	O	0.563400	0.737300	0.669250	-0.570125
O41	O	0.215700	0.194600	0.733280	-0.585977
O42	O	0.130400	0.323800	0.709430	-0.585977
O43	O	0.868400	0.382000	0.666850	-0.570125
O44	O	0.879800	0.391500	0.741760	-0.593701
O45	O	0.420200	0.068000	0.430100	-0.252539
O46	O	0.090700	0.030800	0.408600	-0.565368
O47	O	0.728600	0.147300	0.561300	-0.252539
O48	O	0.963500	0.320500	0.589700	-0.565368
