data_MUPYIG_clean_PM
_symmetry_space_group_name_H-M	'P1'
_cell_length_a	5.514400
_cell_length_b	8.002100
_cell_length_c	9.246700
_cell_angle_alpha	78.487001
_cell_angle_beta	72.869004
_cell_angle_gamma	87.200000
_symmetry_Int_Tables_number 1

loop_
_symmetry_equiv_pos_as_xyz
'x,y,z'

loop_
_atom_site_label
_atom_site_type_symbol
_atom_site_fract_x
_atom_site_fract_y
_atom_site_fract_z
_atom_site_charge
Cd1	Cd	0.000000	0.000000	0.000000	1.171590
Cd2	Cd	0.500000	0.500000	0.500000	1.101158
H1	H	0.555900	0.200800	0.267800	0.083172
H2	H	0.078800	0.519700	0.240600	0.112414
H3	H	0.239200	0.342900	0.062600	0.256449
H4	H	0.444100	0.799200	0.732200	0.083172
H5	H	0.921200	0.480300	0.759400	0.112414
H6	H	0.760800	0.657100	0.937400	0.256449
C1	C	0.710000	0.259200	0.237300	0.306711
C2	C	0.991100	0.432300	0.224100	0.234707
C3	C	0.290000	0.740800	0.762700	0.306711
C4	C	0.008900	0.567700	0.775900	0.234707
S1	S	0.579440	0.207620	0.807310	1.699855
S2	S	0.420560	0.792380	0.192690	1.699855
N1	N	0.752100	0.388700	0.299700	-0.467366
N2	N	0.909000	0.223400	0.128500	-0.338707
N3	N	0.086500	0.335800	0.123200	-0.008148
N4	N	0.247900	0.611300	0.700300	-0.467366
N5	N	0.091000	0.776600	0.871500	-0.338707
N6	N	0.913500	0.664200	0.876800	-0.008148
O1	O	0.694800	0.308200	0.650300	-0.757412
O2	O	0.334700	0.136600	0.809000	-0.773147
O3	O	0.751400	0.068600	0.836100	-0.773147
O4	O	0.538000	0.318200	0.919600	-0.711756
O5	O	0.305200	0.691800	0.349700	-0.757412
O6	O	0.665300	0.863400	0.191000	-0.773147
O7	O	0.248600	0.931400	0.163900	-0.773147
O8	O	0.462000	0.681800	0.080400	-0.711756
