data_MURCAD_clean_PM
_symmetry_space_group_name_H-M	'P1'
_cell_length_a	10.154000
_cell_length_b	10.154000
_cell_length_c	15.512100
_cell_angle_alpha	72.082098
_cell_angle_beta	72.082098
_cell_angle_gamma	86.507799
_symmetry_Int_Tables_number 1

loop_
_symmetry_equiv_pos_as_xyz
'x,y,z'

loop_
_atom_site_label
_atom_site_type_symbol
_atom_site_fract_x
_atom_site_fract_y
_atom_site_fract_z
_atom_site_charge
Cu1	Cu	0.553990	0.008010	0.313520	0.692315
Cu2	Cu	0.991990	0.446010	0.186480	0.692315
Cu3	Cu	0.446010	0.991990	0.686480	0.692315
Cu4	Cu	0.008010	0.553990	0.813520	0.692315
H1	H	0.838000	0.154000	0.026000	0.104359
H2	H	0.776000	0.200000	0.311000	0.099649
H3	H	0.429000	0.257000	0.374000	0.104281
H4	H	0.572000	0.232000	0.406000	0.104281
H5	H	0.438000	0.278000	0.217000	0.104281
H6	H	0.597000	0.249000	0.154000	0.104281
H7	H	0.402000	0.484000	0.273000	0.091942
H8	H	0.846000	0.162000	0.474000	0.104359
H9	H	0.800000	0.224000	0.189000	0.099649
H10	H	0.743000	0.571000	0.126000	0.104281
H11	H	0.768000	0.428000	0.094000	0.104281
H12	H	0.722000	0.562000	0.283000	0.104281
H13	H	0.751000	0.403000	0.346000	0.104281
H14	H	0.516000	0.598000	0.227000	0.091942
H15	H	0.162000	0.846000	0.974000	0.104359
H16	H	0.224000	0.800000	0.689000	0.099649
H17	H	0.571000	0.743000	0.626000	0.104281
H18	H	0.428000	0.768000	0.594000	0.104281
H19	H	0.562000	0.722000	0.783000	0.104281
H20	H	0.403000	0.751000	0.846000	0.104281
H21	H	0.598000	0.516000	0.727000	0.091942
H22	H	0.154000	0.838000	0.526000	0.104359
H23	H	0.200000	0.776000	0.811000	0.099649
H24	H	0.257000	0.429000	0.874000	0.104281
H25	H	0.232000	0.572000	0.906000	0.104281
H26	H	0.278000	0.438000	0.717000	0.104281
H27	H	0.249000	0.597000	0.654000	0.104281
H28	H	0.484000	0.402000	0.773000	0.091942
C1	C	0.879600	0.961800	0.076700	-0.088863
C2	C	0.980800	0.865000	0.061100	-0.088863
C3	C	0.901900	0.094500	0.015900	-0.064894
C4	C	0.747100	0.922500	0.156300	0.644646
C5	C	0.968300	0.720500	0.128500	0.644646
C6	C	0.528500	0.276300	0.358800	0.146250
C7	C	0.547000	0.295400	0.196400	0.146250
C8	C	0.038200	0.120400	0.423300	-0.088863
C9	C	0.135000	0.019200	0.438900	-0.088863
C10	C	0.905500	0.098100	0.484100	-0.064894
C11	C	0.077500	0.252900	0.343700	0.644646
C12	C	0.279500	0.031700	0.371500	0.644646
C13	C	0.723700	0.471500	0.141200	0.146250
C14	C	0.704600	0.453000	0.303600	0.146250
C15	C	0.120400	0.038200	0.923300	-0.088863
C16	C	0.019200	0.135000	0.938900	-0.088863
C17	C	0.098100	0.905500	0.984100	-0.064894
C18	C	0.252900	0.077500	0.843700	0.644646
C19	C	0.031700	0.279500	0.871500	0.644646
C20	C	0.471500	0.723700	0.641200	0.146250
C21	C	0.453000	0.704600	0.803600	0.146250
C22	C	0.961800	0.879600	0.576700	-0.088863
C23	C	0.865000	0.980800	0.561100	-0.088863
C24	C	0.094500	0.901900	0.515900	-0.064894
C25	C	0.922500	0.747100	0.656300	0.644646
C26	C	0.720500	0.968300	0.628500	0.644646
C27	C	0.276300	0.528500	0.858800	0.146250
C28	C	0.295400	0.547000	0.696400	0.146250
C29	C	0.749100	0.250900	0.250000	0.127736
C30	C	0.505800	0.494200	0.250000	0.155033
C31	C	0.250900	0.749100	0.750000	0.127736
C32	C	0.494200	0.505800	0.750000	0.155033
N1	N	0.597100	0.219300	0.278600	-0.266184
N2	N	0.557000	0.425000	0.331300	-0.293484
N3	N	0.780700	0.402900	0.221400	-0.266184
N4	N	0.575000	0.443000	0.168700	-0.293484
N5	N	0.402900	0.780700	0.721400	-0.266184
N6	N	0.443000	0.575000	0.668700	-0.293484
N7	N	0.219300	0.597100	0.778600	-0.266184
N8	N	0.425000	0.557000	0.831300	-0.293484
O1	O	0.703800	0.011600	0.199100	-0.597195
O2	O	0.686400	0.811000	0.173100	-0.565944
O3	O	0.986300	0.623500	0.089200	-0.597195
O4	O	0.946200	0.700400	0.213100	-0.565944
O5	O	0.988400	0.296200	0.300900	-0.597195
O6	O	0.189000	0.313600	0.326900	-0.565944
O7	O	0.376500	0.013700	0.410800	-0.597195
O8	O	0.299600	0.053800	0.286900	-0.565944
O9	O	0.296200	0.988400	0.800900	-0.597195
O10	O	0.313600	0.189000	0.826900	-0.565944
O11	O	0.013700	0.376500	0.910800	-0.597195
O12	O	0.053800	0.299600	0.786900	-0.565944
O13	O	0.011600	0.703800	0.699100	-0.597195
O14	O	0.811000	0.686400	0.673100	-0.565944
O15	O	0.623500	0.986300	0.589200	-0.597195
O16	O	0.700400	0.946200	0.713100	-0.565944
