data_NALYEG_clean_PM
_symmetry_space_group_name_H-M	'P1'
_cell_length_a	9.773600
_cell_length_b	18.353900
_cell_length_c	18.353900
_cell_angle_alpha	119.999999
_cell_angle_beta	90.000000
_cell_angle_gamma	90.000000
_symmetry_Int_Tables_number 1

loop_
_symmetry_equiv_pos_as_xyz
'x,y,z'

loop_
_atom_site_label
_atom_site_type_symbol
_atom_site_fract_x
_atom_site_fract_y
_atom_site_fract_z
_atom_site_charge
U1	U	0.750000	0.642920	0.440950	2.354758
U2	U	0.750000	0.798030	0.357080	2.354758
U3	U	0.750000	0.559050	0.201970	2.354758
U4	U	0.250000	0.357080	0.559050	2.354758
U5	U	0.250000	0.201970	0.642920	2.354758
U6	U	0.250000	0.440950	0.798030	2.354758
H1	H	0.041500	0.915900	0.515500	0.109651
H2	H	0.041500	0.599600	0.084100	0.109651
H3	H	0.041500	0.484500	0.400400	0.109651
H4	H	0.541500	0.084100	0.484500	0.109651
H5	H	0.541500	0.400400	0.915900	0.109651
H6	H	0.541500	0.515500	0.599600	0.109651
H7	H	0.958500	0.084100	0.484500	0.109651
H8	H	0.958500	0.400400	0.915900	0.109651
H9	H	0.958500	0.515500	0.599600	0.109651
H10	H	0.458500	0.915900	0.515500	0.109651
H11	H	0.458500	0.599600	0.084100	0.109651
H12	H	0.458500	0.484500	0.400400	0.109651
H13	H	0.250000	0.707000	0.463300	0.108870
H14	H	0.250000	0.756300	0.293000	0.108870
H15	H	0.250000	0.536700	0.243700	0.108870
H16	H	0.750000	0.293000	0.536700	0.108870
H17	H	0.750000	0.243700	0.707000	0.108870
H18	H	0.750000	0.463300	0.756300	0.108870
C1	C	0.127000	0.804700	0.487100	-0.168878
C2	C	0.124300	0.888900	0.510700	0.029029
C3	C	0.993600	0.760200	0.471900	0.780549
C4	C	0.127000	0.682400	0.195300	-0.168878
C5	C	0.124300	0.621800	0.111100	0.029029
C6	C	0.993600	0.711700	0.239800	0.780549
C7	C	0.127000	0.512900	0.317600	-0.168878
C8	C	0.124300	0.489300	0.378200	0.029029
C9	C	0.993600	0.528100	0.288300	0.780549
C10	C	0.627000	0.195300	0.512900	-0.168878
C11	C	0.624300	0.111100	0.489300	0.029029
C12	C	0.493600	0.239800	0.528100	0.780549
C13	C	0.627000	0.317600	0.804700	-0.168878
C14	C	0.624300	0.378200	0.888900	0.029029
C15	C	0.493600	0.288300	0.760200	0.780549
C16	C	0.627000	0.487100	0.682400	-0.168878
C17	C	0.624300	0.510700	0.621800	0.029029
C18	C	0.493600	0.471900	0.711700	0.780549
C19	C	0.873000	0.195300	0.512900	-0.168878
C20	C	0.875700	0.111100	0.489300	0.029029
C21	C	0.006400	0.239800	0.528100	0.780549
C22	C	0.873000	0.317600	0.804700	-0.168878
C23	C	0.875700	0.378200	0.888900	0.029029
C24	C	0.006400	0.288300	0.760200	0.780549
C25	C	0.873000	0.487100	0.682400	-0.168878
C26	C	0.875700	0.510700	0.621800	0.029029
C27	C	0.006400	0.471900	0.711700	0.780549
C28	C	0.373000	0.804700	0.487100	-0.168878
C29	C	0.375700	0.888900	0.510700	0.029029
C30	C	0.506400	0.760200	0.471900	0.780549
C31	C	0.373000	0.682400	0.195300	-0.168878
C32	C	0.375700	0.621800	0.111100	0.029029
C33	C	0.506400	0.711700	0.239800	0.780549
C34	C	0.373000	0.512900	0.317600	-0.168878
C35	C	0.375700	0.489300	0.378200	0.029029
C36	C	0.506400	0.528100	0.288300	0.780549
C37	C	0.250000	0.933700	0.527600	-0.132806
C38	C	0.250000	0.763100	0.477000	0.046515
C39	C	0.250000	0.025600	0.558200	0.583090
C40	C	0.250000	0.593900	0.066300	-0.132806
C41	C	0.250000	0.713900	0.236900	0.046515
C42	C	0.250000	0.532600	0.974400	0.583090
C43	C	0.250000	0.472400	0.406100	-0.132806
C44	C	0.250000	0.523000	0.286100	0.046515
C45	C	0.250000	0.441800	0.467400	0.583090
C46	C	0.750000	0.066300	0.472400	-0.132806
C47	C	0.750000	0.236900	0.523000	0.046515
C48	C	0.750000	0.974400	0.441800	0.583090
C49	C	0.750000	0.406100	0.933700	-0.132806
C50	C	0.750000	0.286100	0.763100	0.046515
C51	C	0.750000	0.467400	0.025600	0.583090
C52	C	0.750000	0.527600	0.593900	-0.132806
C53	C	0.750000	0.477000	0.713900	0.046515
C54	C	0.750000	0.558200	0.532600	0.583090
O1	O	0.991300	0.688000	0.461800	-0.692922
O2	O	0.362000	0.065000	0.571000	-0.654691
O3	O	0.884000	0.796200	0.467000	-0.692922
O4	O	0.991300	0.773800	0.312000	-0.692922
O5	O	0.362000	0.506000	0.935000	-0.654691
O6	O	0.884000	0.670800	0.203800	-0.692922
O7	O	0.991300	0.538200	0.226200	-0.692922
O8	O	0.362000	0.429000	0.494000	-0.654691
O9	O	0.884000	0.533000	0.329200	-0.692922
O10	O	0.491300	0.312000	0.538200	-0.692922
O11	O	0.862000	0.935000	0.429000	-0.654691
O12	O	0.384000	0.203800	0.533000	-0.692922
O13	O	0.491300	0.226200	0.688000	-0.692922
O14	O	0.862000	0.494000	0.065000	-0.654691
O15	O	0.384000	0.329200	0.796200	-0.692922
O16	O	0.491300	0.461800	0.773800	-0.692922
O17	O	0.862000	0.571000	0.506000	-0.654691
O18	O	0.384000	0.467000	0.670800	-0.692922
O19	O	0.008700	0.312000	0.538200	-0.692922
O20	O	0.638000	0.935000	0.429000	-0.654691
O21	O	0.116000	0.203800	0.533000	-0.692922
O22	O	0.008700	0.226200	0.688000	-0.692922
O23	O	0.638000	0.494000	0.065000	-0.654691
O24	O	0.116000	0.329200	0.796200	-0.692922
O25	O	0.008700	0.461800	0.773800	-0.692922
O26	O	0.638000	0.571000	0.506000	-0.654691
O27	O	0.116000	0.467000	0.670800	-0.692922
O28	O	0.508700	0.688000	0.461800	-0.692922
O29	O	0.138000	0.065000	0.571000	-0.654691
O30	O	0.616000	0.796200	0.467000	-0.692922
O31	O	0.508700	0.773800	0.312000	-0.692922
O32	O	0.138000	0.506000	0.935000	-0.654691
O33	O	0.616000	0.670800	0.203800	-0.692922
O34	O	0.508700	0.538200	0.226200	-0.692922
O35	O	0.138000	0.429000	0.494000	-0.654691
O36	O	0.616000	0.533000	0.329200	-0.692922
O37	O	0.750000	0.666670	0.333340	-1.140174
O38	O	0.250000	0.333330	0.666660	-1.140174
