data_NASMIF_clean_PM
_symmetry_space_group_name_H-M	'P1'
_cell_length_a	10.148000
_cell_length_b	10.884500
_cell_length_c	13.826100
_cell_angle_alpha	78.760002
_cell_angle_beta	79.304998
_cell_angle_gamma	86.222002
_symmetry_Int_Tables_number 1

loop_
_symmetry_equiv_pos_as_xyz
'x,y,z'

loop_
_atom_site_label
_atom_site_type_symbol
_atom_site_fract_x
_atom_site_fract_y
_atom_site_fract_z
_atom_site_charge
Gd1	Gd	0.679550	0.076830	0.203740	2.170270
Gd2	Gd	0.320450	0.923170	0.796260	2.170270
Mn1	Mn	0.000000	0.500000	0.000000	1.018728
H1	H	0.652800	0.668900	0.422500	0.124214
H2	H	0.671800	0.330600	0.347300	0.124214
H3	H	0.715900	0.639700	0.132800	0.103777
H4	H	0.644400	0.544300	0.753900	0.122627
H5	H	0.634300	0.427500	0.911100	0.063788
H6	H	0.648100	0.118500	0.809000	0.063788
H7	H	0.654900	0.225600	0.649300	0.122627
H8	H	0.174900	0.085600	0.219400	0.103777
H9	H	0.913100	0.158800	0.458600	0.124214
H10	H	0.306600	0.148500	0.461400	0.124214
H11	H	0.989900	0.519200	0.626400	0.129022
H12	H	0.982800	0.587800	0.772600	0.083148
H13	H	0.969100	0.247600	0.923900	0.083148
H14	H	0.987000	0.167300	0.780200	0.129022
H15	H	0.621000	0.353800	0.517000	0.289424
H16	H	0.124200	0.158400	0.615700	0.289424
H17	H	0.347200	0.331100	0.577500	0.124214
H18	H	0.328200	0.669400	0.652700	0.124214
H19	H	0.284100	0.360300	0.867200	0.103777
H20	H	0.355600	0.455700	0.246100	0.122627
H21	H	0.365700	0.572500	0.088900	0.063788
H22	H	0.351900	0.881500	0.191000	0.063788
H23	H	0.345100	0.774400	0.350700	0.122627
H24	H	0.825100	0.914400	0.780600	0.103777
H25	H	0.086900	0.841200	0.541400	0.124214
H26	H	0.693400	0.851500	0.538600	0.124214
H27	H	0.010100	0.480800	0.373600	0.129022
H28	H	0.017200	0.412200	0.227400	0.083148
H29	H	0.030900	0.752400	0.076100	0.083148
H30	H	0.013000	0.832700	0.219800	0.129022
H31	H	0.379000	0.646200	0.483000	0.289424
H32	H	0.875800	0.841600	0.384300	0.289424
C1	C	0.686100	0.813400	0.247200	0.757636
C2	C	0.683400	0.674500	0.273200	-0.125792
C3	C	0.664600	0.619200	0.373800	-0.113640
C4	C	0.663100	0.490000	0.401800	0.182231
C5	C	0.677200	0.417200	0.328700	-0.119697
C6	C	0.699300	0.472200	0.227600	-0.126056
C7	C	0.701800	0.602000	0.200200	0.001538
C8	C	0.729000	0.394500	0.148200	0.739988
C9	C	0.666800	0.481100	0.579900	0.497052
C10	C	0.653000	0.398900	0.682000	-0.026506
C11	C	0.645400	0.457300	0.763100	-0.165587
C12	C	0.639400	0.386500	0.857400	0.187681
C13	C	0.647000	0.205600	0.797600	0.187681
C14	C	0.652100	0.269100	0.701300	-0.165587
C15	C	0.405500	0.097700	0.284800	0.757636
C16	C	0.262300	0.113400	0.332100	-0.125792
C17	C	0.157900	0.102800	0.284000	0.006262
C18	C	0.026200	0.118000	0.332500	-0.125792
C19	C	0.001000	0.147800	0.426900	-0.113640
C20	C	0.106000	0.161400	0.474300	0.182231
C21	C	0.236000	0.142200	0.428400	-0.113640
C22	C	0.908500	0.106300	0.283900	0.757636
C23	C	0.995900	0.292600	0.589300	0.497052
C24	C	0.991900	0.334900	0.686600	0.003119
C25	C	0.988500	0.461800	0.686000	-0.143050
C26	C	0.983100	0.502000	0.774200	0.177742
C27	C	0.976600	0.302800	0.862700	0.177742
C28	C	0.985400	0.253500	0.777000	-0.143050
C29	C	0.313900	0.186600	0.752800	0.757636
C30	C	0.316600	0.325500	0.726800	-0.125792
C31	C	0.335400	0.380800	0.626200	-0.113640
C32	C	0.336900	0.510000	0.598200	0.182231
C33	C	0.322800	0.582800	0.671300	-0.119697
C34	C	0.300700	0.527800	0.772400	-0.126056
C35	C	0.298200	0.398000	0.799800	0.001538
C36	C	0.271000	0.605500	0.851800	0.739988
C37	C	0.333200	0.518900	0.420100	0.497052
C38	C	0.347000	0.601100	0.318000	-0.026506
C39	C	0.354600	0.542700	0.236900	-0.165587
C40	C	0.360600	0.613500	0.142600	0.187681
C41	C	0.353000	0.794400	0.202400	0.187681
C42	C	0.347900	0.730900	0.298700	-0.165587
C43	C	0.594500	0.902300	0.715200	0.757636
C44	C	0.737700	0.886600	0.667900	-0.125792
C45	C	0.842100	0.897200	0.716000	0.006262
C46	C	0.973800	0.882000	0.667500	-0.125792
C47	C	0.999000	0.852200	0.573100	-0.113640
C48	C	0.894000	0.838600	0.525700	0.182231
C49	C	0.764000	0.857800	0.571600	-0.113640
C50	C	0.091500	0.893700	0.716100	0.757636
C51	C	0.004100	0.707400	0.410700	0.497052
C52	C	0.008100	0.665100	0.313400	0.003119
C53	C	0.011500	0.538200	0.314000	-0.143050
C54	C	0.016900	0.498000	0.225800	0.177742
C55	C	0.023400	0.697200	0.137300	0.177742
C56	C	0.014600	0.746500	0.223000	-0.143050
N1	N	0.646500	0.430000	0.503100	-0.405153
N2	N	0.640600	0.261100	0.875700	-0.419238
N3	N	0.082300	0.197800	0.569600	-0.405153
N4	N	0.978100	0.425000	0.862800	-0.392746
N5	N	0.353500	0.570000	0.496900	-0.405153
N6	N	0.359400	0.738900	0.124300	-0.419238
N7	N	0.917700	0.802200	0.430400	-0.405153
N8	N	0.021900	0.575000	0.137200	-0.392746
O1	O	0.672900	0.869500	0.161100	-0.723013
O2	O	0.704100	0.874900	0.310700	-0.723013
O3	O	0.800500	0.437400	0.066900	-0.619937
O4	O	0.678400	0.287600	0.167000	-0.728148
O5	O	0.694400	0.589100	0.571000	-0.478503
O6	O	0.438600	0.097400	0.192400	-0.723013
O7	O	0.496000	0.085800	0.337300	-0.723013
O8	O	0.925300	0.093200	0.192900	-0.723013
O9	O	0.792100	0.111200	0.333700	-0.723013
O10	O	0.924500	0.347500	0.530600	-0.478503
O11	O	0.327100	0.130500	0.838900	-0.723013
O12	O	0.295900	0.125100	0.689300	-0.723013
O13	O	0.199500	0.562600	0.933100	-0.619937
O14	O	0.321600	0.712400	0.833000	-0.728148
O15	O	0.305600	0.410900	0.429000	-0.478503
O16	O	0.561400	0.902600	0.807600	-0.723013
O17	O	0.504000	0.914200	0.662700	-0.723013
O18	O	0.074700	0.906800	0.807100	-0.723013
O19	O	0.207900	0.888800	0.666300	-0.723013
O20	O	0.075500	0.652500	0.469400	-0.478503
