data_NEJSIG_clean_PM
_symmetry_space_group_name_H-M	'P1'
_cell_length_a	7.922000
_cell_length_b	8.990000
_cell_length_c	10.801000
_cell_angle_alpha	66.890000
_cell_angle_beta	79.900001
_cell_angle_gamma	78.520003
_symmetry_Int_Tables_number 1

loop_
_symmetry_equiv_pos_as_xyz
'x,y,z'

loop_
_atom_site_label
_atom_site_type_symbol
_atom_site_fract_x
_atom_site_fract_y
_atom_site_fract_z
_atom_site_charge
Cu1	Cu	0.618180	0.602030	0.954280	0.831867
Cu2	Cu	0.381820	0.397970	0.045720	0.831867
H1	H	0.714000	0.952000	0.080700	0.101770
H2	H	0.067200	0.266800	0.923100	0.101770
H3	H	0.332300	0.348500	0.452400	0.101770
H4	H	0.689600	0.650800	0.332100	0.101770
H5	H	0.623700	0.962600	0.777800	0.081135
H6	H	0.749100	0.117100	0.574200	0.129707
H7	H	0.140500	0.755000	0.622600	0.129707
H8	H	0.992600	0.612900	0.820000	0.081135
H9	H	0.286000	0.048000	0.919300	0.101770
H10	H	0.932800	0.733200	0.076900	0.101770
H11	H	0.667700	0.651500	0.547600	0.101770
H12	H	0.310400	0.349200	0.667900	0.101770
H13	H	0.376300	0.037400	0.222200	0.081135
H14	H	0.250900	0.882900	0.425800	0.129707
H15	H	0.859500	0.245000	0.377400	0.129707
H16	H	0.007400	0.387100	0.180000	0.081135
C1	C	0.732100	0.265400	0.011100	0.648145
C2	C	0.533100	0.497400	0.229700	0.648145
C3	C	0.870200	0.127900	0.006000	-0.114110
C4	C	0.827800	0.970600	0.049400	-0.073118
C5	C	0.041200	0.160900	0.954200	-0.073118
C6	C	0.519800	0.499300	0.369300	-0.114110
C7	C	0.400100	0.408500	0.471600	-0.073118
C8	C	0.613700	0.589100	0.399800	-0.073118
C9	C	0.728400	0.917400	0.743700	0.175498
C10	C	0.803200	0.012400	0.620700	-0.193115
C11	C	0.956700	0.952400	0.567400	0.090676
C12	C	0.030800	0.800200	0.648900	-0.193115
C13	C	0.941200	0.716600	0.768700	0.175498
C14	C	0.267900	0.734600	0.988900	0.648145
C15	C	0.466900	0.502600	0.770300	0.648145
C16	C	0.129800	0.872100	0.994000	-0.114110
C17	C	0.172200	0.029400	0.950600	-0.073118
C18	C	0.958800	0.839100	0.045800	-0.073118
C19	C	0.480200	0.500700	0.630700	-0.114110
C20	C	0.599900	0.591500	0.528400	-0.073118
C21	C	0.386300	0.410900	0.600200	-0.073118
C22	C	0.271600	0.082600	0.256300	0.175498
C23	C	0.196800	0.987600	0.379300	-0.193115
C24	C	0.043300	0.047600	0.432600	0.090676
C25	C	0.969200	0.199800	0.351100	-0.193115
C26	C	0.058800	0.283400	0.231300	0.175498
N1	N	0.790900	0.770400	0.816300	-0.300563
N2	N	0.209100	0.229600	0.183700	-0.300563
O1	O	0.577500	0.235400	0.049900	-0.547777
O2	O	0.780700	0.410900	0.974800	-0.547777
O3	O	0.437300	0.409700	0.214500	-0.547777
O4	O	0.635600	0.582000	0.139000	-0.547777
O5	O	0.422500	0.764600	0.950100	-0.547777
O6	O	0.219300	0.589100	0.025200	-0.547777
O7	O	0.562700	0.590300	0.785500	-0.547777
O8	O	0.364400	0.418000	0.861000	-0.547777
