data_NIGBOW_clean_PM
_symmetry_space_group_name_H-M	'P1'
_cell_length_a	6.957000
_cell_length_b	15.258800
_cell_length_c	15.258800
_cell_angle_alpha	84.758699
_cell_angle_beta	76.822603
_cell_angle_gamma	76.822601
_symmetry_Int_Tables_number 1

loop_
_symmetry_equiv_pos_as_xyz
'x,y,z'

loop_
_atom_site_label
_atom_site_type_symbol
_atom_site_fract_x
_atom_site_fract_y
_atom_site_fract_z
_atom_site_charge
V1	V	0.500000	0.000000	0.000000	2.136000
V2	V	0.000000	0.000000	0.000000	2.136000
C1	C	0.584600	0.694000	0.004000	0.029426
C2	C	0.637000	0.595000	0.003000	-0.065777
C3	C	0.915400	0.996000	0.306000	0.029426
C4	C	0.863000	0.997000	0.405000	-0.065777
C5	C	0.782600	0.306000	0.996000	0.029426
C6	C	0.735000	0.405000	0.997000	-0.065777
C7	C	0.717400	0.004000	0.694000	0.029426
C8	C	0.765000	0.003000	0.595000	-0.065777
C9	C	0.415400	0.306000	0.996000	0.029426
C10	C	0.363000	0.405000	0.997000	-0.065777
C11	C	0.084600	0.004000	0.694000	0.029426
C12	C	0.137000	0.003000	0.595000	-0.065777
C13	C	0.217400	0.694000	0.004000	0.029426
C14	C	0.265000	0.595000	0.003000	-0.065777
C15	C	0.282600	0.996000	0.306000	0.029426
C16	C	0.235000	0.997000	0.405000	-0.065777
C17	C	0.332000	0.844000	0.992000	0.707867
C18	C	0.379000	0.741000	0.001000	-0.098739
C19	C	0.474000	0.550000	0.002000	0.082758
C20	C	0.168000	0.008000	0.156000	0.707867
C21	C	0.121000	0.999000	0.259000	-0.098739
C22	C	0.026000	0.998000	0.450000	0.082758
C23	C	0.668000	0.156000	0.008000	0.707867
C24	C	0.621000	0.259000	0.999000	-0.098739
C25	C	0.526000	0.450000	0.998000	0.082758
C26	C	0.832000	0.992000	0.844000	0.707867
C27	C	0.879000	0.001000	0.741000	-0.098739
C28	C	0.974000	0.002000	0.550000	0.082758
O1	O	0.487500	0.884500	0.986500	-0.652084
O2	O	0.012500	0.013500	0.115500	-0.652084
O3	O	0.858500	0.115500	0.013500	-0.652084
O4	O	0.641500	0.986500	0.884500	-0.652084
O5	O	0.512500	0.115500	0.013500	-0.652084
O6	O	0.987500	0.986500	0.884500	-0.652084
O7	O	0.141500	0.884500	0.986500	-0.652084
O8	O	0.358500	0.013500	0.115500	-0.652084
O9	O	0.750000	0.962000	0.038000	-0.766034
O10	O	0.250000	0.038000	0.962000	-0.766034
