data_NIJZOV_clean_PM
_symmetry_space_group_name_H-M	'P1'
_cell_length_a	14.516000
_cell_length_b	14.516000
_cell_length_c	15.279000
_cell_angle_alpha	90.000000
_cell_angle_beta	90.000000
_cell_angle_gamma	120.000000
_symmetry_Int_Tables_number 1

loop_
_symmetry_equiv_pos_as_xyz
'x,y,z'

loop_
_atom_site_label
_atom_site_type_symbol
_atom_site_fract_x
_atom_site_fract_y
_atom_site_fract_z
_atom_site_charge
Er1	Er	0.666670	0.333340	0.750000	1.123394
Er2	Er	0.333330	0.666660	0.750000	1.123394
Er3	Er	0.333330	0.666660	0.250000	1.123394
Er4	Er	0.666670	0.333340	0.250000	1.123394
Cu1	Cu	0.500000	0.500000	0.500000	1.055721
Cu2	Cu	0.000000	0.500000	0.500000	1.055721
Cu3	Cu	0.500000	0.000000	0.500000	1.055721
Cu4	Cu	0.000000	0.500000	0.000000	1.055721
Cu5	Cu	0.500000	0.500000	0.000000	1.055721
Cu6	Cu	0.500000	0.000000	0.000000	1.055721
C1	C	0.737100	0.588700	0.694300	-0.140865
C2	C	0.645900	0.513700	0.638100	0.649930
C3	C	0.851600	0.262900	0.694300	-0.140865
C4	C	0.867800	0.354100	0.638100	0.649930
C5	C	0.411300	0.148400	0.694300	-0.140865
C6	C	0.486300	0.132200	0.638100	0.649930
C7	C	0.262900	0.411300	0.694300	-0.140865
C8	C	0.354100	0.486300	0.638100	0.649930
C9	C	0.148400	0.737100	0.694300	-0.140865
C10	C	0.132200	0.645900	0.638100	0.649930
C11	C	0.588700	0.851600	0.694300	-0.140865
C12	C	0.513700	0.867800	0.638100	0.649930
C13	C	0.148400	0.411300	0.805700	-0.140865
C14	C	0.132200	0.486300	0.861900	0.649930
C15	C	0.588700	0.737100	0.805700	-0.140865
C16	C	0.513700	0.645900	0.861900	0.649930
C17	C	0.262900	0.851600	0.805700	-0.140865
C18	C	0.354100	0.867800	0.861900	0.649930
C19	C	0.851600	0.588700	0.805700	-0.140865
C20	C	0.867800	0.513700	0.861900	0.649930
C21	C	0.411300	0.262900	0.805700	-0.140865
C22	C	0.486300	0.354100	0.861900	0.649930
C23	C	0.737100	0.148400	0.805700	-0.140865
C24	C	0.645900	0.132200	0.861900	0.649930
C25	C	0.262900	0.411300	0.305700	-0.140865
C26	C	0.354100	0.486300	0.361900	0.649930
C27	C	0.148400	0.737100	0.305700	-0.140865
C28	C	0.132200	0.645900	0.361900	0.649930
C29	C	0.588700	0.851600	0.305700	-0.140865
C30	C	0.513700	0.867800	0.361900	0.649930
C31	C	0.737100	0.588700	0.305700	-0.140865
C32	C	0.645900	0.513700	0.361900	0.649930
C33	C	0.851600	0.262900	0.305700	-0.140865
C34	C	0.867800	0.354100	0.361900	0.649930
C35	C	0.411300	0.148400	0.305700	-0.140865
C36	C	0.486300	0.132200	0.361900	0.649930
C37	C	0.851600	0.588700	0.194300	-0.140865
C38	C	0.867800	0.513700	0.138100	0.649930
C39	C	0.411300	0.262900	0.194300	-0.140865
C40	C	0.486300	0.354100	0.138100	0.649930
C41	C	0.737100	0.148400	0.194300	-0.140865
C42	C	0.645900	0.132200	0.138100	0.649930
C43	C	0.148400	0.411300	0.194300	-0.140865
C44	C	0.132200	0.486300	0.138100	0.649930
C45	C	0.588700	0.737100	0.194300	-0.140865
C46	C	0.513700	0.645900	0.138100	0.649930
C47	C	0.262900	0.851600	0.194300	-0.140865
C48	C	0.354100	0.867800	0.138100	0.649930
O1	O	0.612500	0.415600	0.644700	-0.509586
O2	O	0.610900	0.556900	0.588600	-0.537630
O3	O	0.803100	0.387500	0.644700	-0.509586
O4	O	0.946000	0.389100	0.588600	-0.537630
O5	O	0.584400	0.196900	0.644700	-0.509586
O6	O	0.443100	0.054000	0.588600	-0.537630
O7	O	0.387500	0.584400	0.644700	-0.509586
O8	O	0.389100	0.443100	0.588600	-0.537630
O9	O	0.196900	0.612500	0.644700	-0.509586
O10	O	0.054000	0.610900	0.588600	-0.537630
O11	O	0.415600	0.803100	0.644700	-0.509586
O12	O	0.556900	0.946000	0.588600	-0.537630
O13	O	0.196900	0.584400	0.855300	-0.509586
O14	O	0.054000	0.443100	0.911400	-0.537630
O15	O	0.415600	0.612500	0.855300	-0.509586
O16	O	0.556900	0.610900	0.911400	-0.537630
O17	O	0.387500	0.803100	0.855300	-0.509586
O18	O	0.389100	0.946000	0.911400	-0.537630
O19	O	0.803100	0.415600	0.855300	-0.509586
O20	O	0.946000	0.556900	0.911400	-0.537630
O21	O	0.584400	0.387500	0.855300	-0.509586
O22	O	0.443100	0.389100	0.911400	-0.537630
O23	O	0.612500	0.196900	0.855300	-0.509586
O24	O	0.610900	0.054000	0.911400	-0.537630
O25	O	0.387500	0.584400	0.355300	-0.509586
O26	O	0.389100	0.443100	0.411400	-0.537630
O27	O	0.196900	0.612500	0.355300	-0.509586
O28	O	0.054000	0.610900	0.411400	-0.537630
O29	O	0.415600	0.803100	0.355300	-0.509586
O30	O	0.556900	0.946000	0.411400	-0.537630
O31	O	0.612500	0.415600	0.355300	-0.509586
O32	O	0.610900	0.556900	0.411400	-0.537630
O33	O	0.803100	0.387500	0.355300	-0.509586
O34	O	0.946000	0.389100	0.411400	-0.537630
O35	O	0.584400	0.196900	0.355300	-0.509586
O36	O	0.443100	0.054000	0.411400	-0.537630
O37	O	0.803100	0.415600	0.144700	-0.509586
O38	O	0.946000	0.556900	0.088600	-0.537630
O39	O	0.584400	0.387500	0.144700	-0.509586
O40	O	0.443100	0.389100	0.088600	-0.537630
O41	O	0.612500	0.196900	0.144700	-0.509586
O42	O	0.610900	0.054000	0.088600	-0.537630
O43	O	0.196900	0.584400	0.144700	-0.509586
O44	O	0.054000	0.443100	0.088600	-0.537630
O45	O	0.415600	0.612500	0.144700	-0.509586
O46	O	0.556900	0.610900	0.088600	-0.537630
O47	O	0.387500	0.803100	0.144700	-0.509586
O48	O	0.389100	0.946000	0.088600	-0.537630
O49	O	0.762800	0.525600	0.750000	0.173976
O50	O	0.762800	0.237200	0.750000	0.173976
O51	O	0.474400	0.237200	0.750000	0.173976
O52	O	0.237200	0.474400	0.750000	0.173976
O53	O	0.237200	0.762800	0.750000	0.173976
O54	O	0.525600	0.762800	0.750000	0.173976
O55	O	0.237200	0.474400	0.250000	0.173976
O56	O	0.237200	0.762800	0.250000	0.173976
O57	O	0.525600	0.762800	0.250000	0.173976
O58	O	0.762800	0.525600	0.250000	0.173976
O59	O	0.762800	0.237200	0.250000	0.173976
O60	O	0.474400	0.237200	0.250000	0.173976
