data_OBEDEE_clean_PM
_symmetry_space_group_name_H-M	'P1'
_cell_length_a	10.230000
_cell_length_b	11.839000
_cell_length_c	26.071000
_cell_angle_alpha	90.000000
_cell_angle_beta	90.588998
_cell_angle_gamma	90.000000
_symmetry_Int_Tables_number 1

loop_
_symmetry_equiv_pos_as_xyz
'x,y,z'

loop_
_atom_site_label
_atom_site_type_symbol
_atom_site_fract_x
_atom_site_fract_y
_atom_site_fract_z
_atom_site_charge
Ag1	Ag	0.841410	0.969580	0.955220	0.534120
Ag2	Ag	0.341410	0.530420	0.455220	0.534120
Ag3	Ag	0.658590	0.469580	0.544780	0.534120
Ag4	Ag	0.158590	0.030420	0.044780	0.534120
H1	H	0.556400	0.222000	0.317500	0.377243
H2	H	0.810300	0.954600	0.331100	0.099798
H3	H	0.735200	0.793800	0.371300	0.098872
H4	H	0.367800	0.894300	0.344600	0.098872
H5	H	0.441100	0.053900	0.304100	0.099798
H6	H	0.860000	0.271400	0.251100	0.099798
H7	H	0.019100	0.379700	0.289500	0.098872
H8	H	0.933000	0.236100	0.425400	0.098872
H9	H	0.771700	0.129700	0.385200	0.099798
H10	H	0.536000	0.168400	0.204000	0.099798
H11	H	0.565500	0.113400	0.120300	0.098872
H12	H	0.906300	0.967400	0.158900	0.098872
H13	H	0.876700	0.025100	0.243600	0.099798
H14	H	0.056400	0.278000	0.817500	0.377243
H15	H	0.310300	0.545400	0.831100	0.099798
H16	H	0.235200	0.706200	0.871300	0.098872
H17	H	0.867800	0.605700	0.844600	0.098872
H18	H	0.941100	0.446100	0.804100	0.099798
H19	H	0.360000	0.228600	0.751100	0.099798
H20	H	0.519100	0.120300	0.789500	0.098872
H21	H	0.433000	0.263900	0.925400	0.098872
H22	H	0.271700	0.370300	0.885200	0.099798
H23	H	0.036000	0.331600	0.704000	0.099798
H24	H	0.065500	0.386600	0.620300	0.098872
H25	H	0.406300	0.532600	0.658900	0.098872
H26	H	0.376700	0.474900	0.743600	0.099798
H27	H	0.943600	0.722000	0.182500	0.377243
H28	H	0.689700	0.454600	0.168900	0.099798
H29	H	0.764800	0.293800	0.128700	0.098872
H30	H	0.132200	0.394300	0.155400	0.098872
H31	H	0.058900	0.553900	0.195900	0.099798
H32	H	0.640000	0.771400	0.248900	0.099798
H33	H	0.480900	0.879700	0.210500	0.098872
H34	H	0.567000	0.736100	0.074600	0.098872
H35	H	0.728300	0.629700	0.114800	0.099798
H36	H	0.964000	0.668400	0.296000	0.099798
H37	H	0.934500	0.613400	0.379700	0.098872
H38	H	0.593700	0.467400	0.341100	0.098872
H39	H	0.623300	0.525100	0.256400	0.099798
H40	H	0.443600	0.778000	0.682500	0.377243
H41	H	0.189700	0.045400	0.668900	0.099798
H42	H	0.264800	0.206200	0.628700	0.098872
H43	H	0.632200	0.105700	0.655400	0.098872
H44	H	0.558900	0.946100	0.695900	0.099798
H45	H	0.140000	0.728600	0.748900	0.099798
H46	H	0.980900	0.620300	0.710500	0.098872
H47	H	0.067000	0.763900	0.574600	0.098872
H48	H	0.228300	0.870300	0.614800	0.099798
H49	H	0.464000	0.831600	0.796000	0.099798
H50	H	0.434500	0.886600	0.879700	0.098872
H51	H	0.093700	0.032600	0.841100	0.098872
H52	H	0.123300	0.974900	0.756400	0.099798
C1	C	0.681400	0.133200	0.289100	0.260000
C2	C	0.635600	0.026900	0.314200	-0.013083
C3	C	0.720700	0.943800	0.334100	-0.105182
C4	C	0.676200	0.846300	0.358100	-0.077298
C5	C	0.542700	0.828600	0.361900	-0.093293
C6	C	0.457300	0.906600	0.341900	-0.077298
C7	C	0.501400	0.003400	0.318000	-0.105182
C8	C	0.489400	0.732600	0.387900	0.384720
C9	C	0.801000	0.190300	0.314300	-0.013083
C10	C	0.874900	0.265000	0.286200	-0.105182
C11	C	0.969900	0.330000	0.309000	-0.077298
C12	C	0.992800	0.320800	0.362900	-0.093293
C13	C	0.918300	0.244400	0.390300	-0.077298
C14	C	0.821800	0.179800	0.366200	-0.105182
C15	C	0.088100	0.389800	0.388700	0.384720
C16	C	0.705100	0.102700	0.232400	-0.013083
C17	C	0.610700	0.128500	0.195000	-0.105182
C18	C	0.627900	0.095200	0.145200	-0.077298
C19	C	0.737400	0.034800	0.131800	-0.093293
C20	C	0.832100	0.007800	0.168000	-0.077298
C21	C	0.814000	0.042800	0.218800	-0.105182
C22	C	0.756300	0.000200	0.078700	0.384720
C23	C	0.181400	0.366800	0.789100	0.260000
C24	C	0.135600	0.473100	0.814200	-0.013083
C25	C	0.220700	0.556200	0.834100	-0.105182
C26	C	0.176200	0.653700	0.858100	-0.077298
C27	C	0.042700	0.671400	0.861900	-0.093293
C28	C	0.957300	0.593400	0.841900	-0.077298
C29	C	0.001400	0.496600	0.818000	-0.105182
C30	C	0.989400	0.767400	0.887900	0.384720
C31	C	0.301000	0.309700	0.814300	-0.013083
C32	C	0.374900	0.235000	0.786200	-0.105182
C33	C	0.469900	0.170000	0.809000	-0.077298
C34	C	0.492800	0.179200	0.862900	-0.093293
C35	C	0.418300	0.255600	0.890300	-0.077298
C36	C	0.321800	0.320200	0.866200	-0.105182
C37	C	0.588100	0.110200	0.888700	0.384720
C38	C	0.205100	0.397300	0.732400	-0.013083
C39	C	0.110700	0.371500	0.695000	-0.105182
C40	C	0.127900	0.404800	0.645200	-0.077298
C41	C	0.237400	0.465200	0.631800	-0.093293
C42	C	0.332100	0.492200	0.668000	-0.077298
C43	C	0.314000	0.457200	0.718800	-0.105182
C44	C	0.256300	0.499800	0.578700	0.384720
C45	C	0.818600	0.633200	0.210900	0.260000
C46	C	0.864400	0.526900	0.185800	-0.013083
C47	C	0.779300	0.443800	0.165900	-0.105182
C48	C	0.823800	0.346300	0.141900	-0.077298
C49	C	0.957300	0.328600	0.138100	-0.093293
C50	C	0.042700	0.406600	0.158100	-0.077298
C51	C	0.998600	0.503400	0.182000	-0.105182
C52	C	0.010600	0.232600	0.112100	0.384720
C53	C	0.699000	0.690300	0.185700	-0.013083
C54	C	0.625100	0.765000	0.213800	-0.105182
C55	C	0.530100	0.830000	0.191000	-0.077298
C56	C	0.507200	0.820800	0.137100	-0.093293
C57	C	0.581700	0.744400	0.109700	-0.077298
C58	C	0.678200	0.679800	0.133800	-0.105182
C59	C	0.411900	0.889800	0.111300	0.384720
C60	C	0.794900	0.602700	0.267600	-0.013083
C61	C	0.889300	0.628500	0.305000	-0.105182
C62	C	0.872100	0.595200	0.354800	-0.077298
C63	C	0.762600	0.534800	0.368200	-0.093293
C64	C	0.667900	0.507800	0.332000	-0.077298
C65	C	0.686000	0.542800	0.281200	-0.105182
C66	C	0.743700	0.500200	0.421300	0.384720
C67	C	0.318600	0.866800	0.710900	0.260000
C68	C	0.364400	0.973100	0.685800	-0.013083
C69	C	0.279300	0.056200	0.665900	-0.105182
C70	C	0.323800	0.153700	0.641900	-0.077298
C71	C	0.457300	0.171400	0.638100	-0.093293
C72	C	0.542700	0.093400	0.658100	-0.077298
C73	C	0.498600	0.996600	0.682000	-0.105182
C74	C	0.510600	0.267400	0.612100	0.384720
C75	C	0.199000	0.809700	0.685700	-0.013083
C76	C	0.125100	0.735000	0.713800	-0.105182
C77	C	0.030100	0.670000	0.691000	-0.077298
C78	C	0.007200	0.679200	0.637100	-0.093293
C79	C	0.081700	0.755600	0.609700	-0.077298
C80	C	0.178200	0.820200	0.633800	-0.105182
C81	C	0.911900	0.610200	0.611300	0.384720
C82	C	0.294900	0.897300	0.767600	-0.013083
C83	C	0.389300	0.871500	0.805000	-0.105182
C84	C	0.372100	0.904800	0.854800	-0.077298
C85	C	0.262600	0.965200	0.868200	-0.093293
C86	C	0.167900	0.992200	0.832000	-0.077298
C87	C	0.186000	0.957200	0.781200	-0.105182
C88	C	0.243700	0.999800	0.921300	0.384720
N1	N	0.772300	0.974800	0.036790	-0.503105
N2	N	0.156100	0.454200	0.407700	-0.503105
N3	N	0.446100	0.656800	0.409000	-0.503105
N4	N	0.272300	0.525200	0.536790	-0.503105
N5	N	0.656100	0.045800	0.907700	-0.503105
N6	N	0.946100	0.843200	0.909000	-0.503105
N7	N	0.727700	0.474800	0.463210	-0.503105
N8	N	0.343900	0.954200	0.092300	-0.503105
N9	N	0.053900	0.156800	0.091000	-0.503105
N10	N	0.227700	0.025200	0.963210	-0.503105
N11	N	0.843900	0.545800	0.592300	-0.503105
N12	N	0.553900	0.343200	0.591000	-0.503105
O1	O	0.578700	0.215200	0.287800	-0.594220
O2	O	0.078700	0.284800	0.787800	-0.594220
O3	O	0.921300	0.715200	0.212200	-0.594220
O4	O	0.421300	0.784800	0.712200	-0.594220
