data_OBODEQ_clean_PM
_symmetry_space_group_name_H-M	'P1'
_cell_length_a	10.380000
_cell_length_b	10.752000
_cell_length_c	16.025000
_cell_angle_alpha	90.000000
_cell_angle_beta	106.418998
_cell_angle_gamma	90.000000
_symmetry_Int_Tables_number 1

loop_
_symmetry_equiv_pos_as_xyz
'x,y,z'

loop_
_atom_site_label
_atom_site_type_symbol
_atom_site_fract_x
_atom_site_fract_y
_atom_site_fract_z
_atom_site_charge
Nd1	Nd	0.634460	0.870690	0.972270	2.239173
Nd2	Nd	0.865540	0.370690	0.527730	2.239173
Nd3	Nd	0.365540	0.129310	0.027730	2.239173
Nd4	Nd	0.134460	0.629310	0.472270	2.239173
H1	H	0.091600	0.901300	0.928100	0.107071
H2	H	0.222800	0.726500	0.746000	0.106472
H3	H	0.842100	0.687700	0.750600	0.107071
H4	H	0.408400	0.401300	0.571900	0.107071
H5	H	0.277200	0.226500	0.754000	0.106472
H6	H	0.657900	0.187700	0.749400	0.107071
H7	H	0.908400	0.098700	0.071900	0.107071
H8	H	0.777200	0.273500	0.254000	0.106472
H9	H	0.157900	0.312300	0.249400	0.107071
H10	H	0.591600	0.598700	0.428100	0.107071
H11	H	0.722800	0.773500	0.246000	0.106472
H12	H	0.342100	0.812300	0.250600	0.107071
C1	C	0.833800	0.836100	0.880900	0.654015
C2	C	0.948600	0.801700	0.843800	-0.148946
C3	C	0.076000	0.848300	0.880500	0.033123
C4	C	0.182100	0.816300	0.846500	-0.177720
C5	C	0.154500	0.744000	0.771400	0.035787
C6	C	0.026200	0.697600	0.733900	-0.177720
C7	C	0.926300	0.723600	0.772800	0.033123
C8	C	0.323600	0.856400	0.891000	0.788061
C9	C	0.995700	0.627800	0.648300	0.788061
C10	C	0.666200	0.336100	0.619100	0.654015
C11	C	0.551400	0.301700	0.656200	-0.148946
C12	C	0.424000	0.348300	0.619500	0.033123
C13	C	0.317900	0.316300	0.653500	-0.177720
C14	C	0.345500	0.244000	0.728600	0.035787
C15	C	0.473800	0.197600	0.766100	-0.177720
C16	C	0.573700	0.223600	0.727200	0.033123
C17	C	0.176400	0.356400	0.609000	0.788061
C18	C	0.504300	0.127800	0.851700	0.788061
C19	C	0.166200	0.163900	0.119100	0.654015
C20	C	0.051400	0.198300	0.156200	-0.148946
C21	C	0.924000	0.151700	0.119500	0.033123
C22	C	0.817900	0.183700	0.153500	-0.177720
C23	C	0.845500	0.256000	0.228600	0.035787
C24	C	0.973800	0.302400	0.266100	-0.177720
C25	C	0.073700	0.276400	0.227200	0.033123
C26	C	0.676400	0.143600	0.109000	0.788061
C27	C	0.004300	0.372200	0.351700	0.788061
C28	C	0.333800	0.663900	0.380900	0.654015
C29	C	0.448600	0.698300	0.343800	-0.148946
C30	C	0.576000	0.651700	0.380500	0.033123
C31	C	0.682100	0.683700	0.346500	-0.177720
C32	C	0.654500	0.756000	0.271400	0.035787
C33	C	0.526200	0.802400	0.233900	-0.177720
C34	C	0.426300	0.776400	0.272800	0.033123
C35	C	0.823600	0.643600	0.391000	0.788061
C36	C	0.495700	0.872200	0.148300	0.788061
O1	O	0.855400	0.912400	0.942900	-0.695766
O2	O	0.721600	0.786100	0.849200	-0.695766
O3	O	0.343000	0.941400	0.946800	-0.749010
O4	O	0.417800	0.801900	0.872100	-0.749010
O5	O	0.919900	0.535000	0.638100	-0.749010
O6	O	0.047200	0.672900	0.593000	-0.749010
O7	O	0.644600	0.412400	0.557100	-0.695766
O8	O	0.778400	0.286100	0.650800	-0.695766
O9	O	0.157000	0.441400	0.553200	-0.749010
O10	O	0.082200	0.301900	0.627900	-0.749010
O11	O	0.580100	0.035000	0.861900	-0.749010
O12	O	0.452800	0.172900	0.907000	-0.749010
O13	O	0.144600	0.087600	0.057100	-0.695766
O14	O	0.278400	0.213900	0.150800	-0.695766
O15	O	0.657000	0.058600	0.053200	-0.749010
O16	O	0.582200	0.198100	0.127900	-0.749010
O17	O	0.080100	0.465000	0.361900	-0.749010
O18	O	0.952800	0.327100	0.407000	-0.749010
O19	O	0.355400	0.587600	0.442900	-0.695766
O20	O	0.221600	0.713900	0.349200	-0.695766
O21	O	0.843000	0.558600	0.446800	-0.749010
O22	O	0.917800	0.698100	0.372100	-0.749010
O23	O	0.419900	0.965000	0.138100	-0.749010
O24	O	0.547200	0.827100	0.093000	-0.749010
