data_OBUBOC_manual_PM
_symmetry_space_group_name_H-M	'P1'
_cell_length_a	13.811000
_cell_length_b	15.498000
_cell_length_c	15.498000
_cell_angle_alpha	119.999999
_cell_angle_beta	90.000000
_cell_angle_gamma	90.000000
_symmetry_Int_Tables_number 1

loop_
_symmetry_equiv_pos_as_xyz
'x,y,z'

loop_
_atom_site_label
_atom_site_type_symbol
_atom_site_fract_x
_atom_site_fract_y
_atom_site_fract_z
_atom_site_charge
Ce1	Ce	0.465490	0.666670	0.333340	2.167348
Ce2	Ce	0.034510	0.666670	0.333340	2.167348
Ce3	Ce	0.534510	0.333330	0.666660	2.167348
Ce4	Ce	0.965490	0.333330	0.666660	2.167348
Cu1	Cu	0.250000	0.473960	0.498800	0.982392
Cu2	Cu	0.250000	0.024840	0.526040	0.982392
Cu3	Cu	0.250000	0.501200	0.975160	0.982392
Cu4	Cu	0.750000	0.975160	0.501200	0.982392
Cu5	Cu	0.750000	0.498800	0.473960	0.982392
Cu6	Cu	0.750000	0.526040	0.024840	0.982392
H1	H	0.504400	0.384900	0.286100	0.096810
H2	H	0.412000	0.356500	0.218000	0.096810
H3	H	0.490300	0.391400	0.089200	0.096810
H4	H	0.573300	0.372600	0.147200	0.096810
H5	H	0.504400	0.901200	0.615100	0.096810
H6	H	0.412000	0.861500	0.643500	0.096810
H7	H	0.490300	0.697800	0.608600	0.096810
H8	H	0.573300	0.774600	0.627400	0.096810
H9	H	0.504400	0.713900	0.098800	0.096810
H10	H	0.412000	0.782000	0.138500	0.096810
H11	H	0.490300	0.910800	0.302200	0.096810
H12	H	0.573300	0.852800	0.225400	0.096810
H13	H	0.995600	0.384900	0.286100	0.096810
H14	H	0.088000	0.356500	0.218000	0.096810
H15	H	0.009700	0.391400	0.089200	0.096810
H16	H	0.926700	0.372600	0.147200	0.096810
H17	H	0.995600	0.901200	0.615100	0.096810
H18	H	0.088000	0.861500	0.643500	0.096810
H19	H	0.009700	0.697800	0.608600	0.096810
H20	H	0.926700	0.774600	0.627400	0.096810
H21	H	0.995600	0.713900	0.098800	0.096810
H22	H	0.088000	0.782000	0.138500	0.096810
H23	H	0.009700	0.910800	0.302200	0.096810
H24	H	0.926700	0.852800	0.225400	0.096810
H25	H	0.495600	0.098800	0.713900	0.096810
H26	H	0.588000	0.138500	0.782000	0.096810
H27	H	0.509700	0.302200	0.910800	0.096810
H28	H	0.426700	0.225400	0.852800	0.096810
H29	H	0.495600	0.286100	0.384900	0.096810
H30	H	0.588000	0.218000	0.356500	0.096810
H31	H	0.509700	0.089200	0.391400	0.096810
H32	H	0.426700	0.147200	0.372600	0.096810
H33	H	0.495600	0.615100	0.901200	0.096810
H34	H	0.588000	0.643500	0.861500	0.096810
H35	H	0.509700	0.608600	0.697800	0.096810
H36	H	0.426700	0.627400	0.774600	0.096810
H37	H	0.004400	0.098800	0.713900	0.096810
H38	H	0.912000	0.138500	0.782000	0.096810
H39	H	0.990300	0.302200	0.910800	0.096810
H40	H	0.073300	0.225400	0.852800	0.096810
H41	H	0.004400	0.286100	0.384900	0.096810
H42	H	0.912000	0.218000	0.356500	0.096810
H43	H	0.990300	0.089200	0.391400	0.096810
H44	H	0.073300	0.147200	0.372600	0.096810
H45	H	0.004400	0.615100	0.901200	0.096810
H46	H	0.912000	0.643500	0.861500	0.096810
H47	H	0.990300	0.608600	0.697800	0.096810
H48	H	0.073300	0.627400	0.774600	0.096810
C1	C	0.448800	0.411700	0.269100	-0.038125
C2	C	0.385500	0.472000	0.361500	0.715008
C3	C	0.533600	0.423600	0.145900	-0.038125
C4	C	0.597900	0.497200	0.135200	0.715008
C5	C	0.448800	0.857400	0.588300	-0.038125
C6	C	0.385500	0.889500	0.528000	0.715008
C7	C	0.533600	0.722300	0.576400	-0.038125
C8	C	0.597900	0.638000	0.502800	0.715008
C9	C	0.448800	0.730900	0.142600	-0.038125
C10	C	0.385500	0.638500	0.110500	0.715008
C11	C	0.533600	0.854100	0.277700	-0.038125
C12	C	0.597900	0.864800	0.362000	0.715008
C13	C	0.051200	0.411700	0.269100	-0.038125
C14	C	0.114500	0.472000	0.361500	0.715008
C15	C	0.966400	0.423600	0.145900	-0.038125
C16	C	0.902100	0.497200	0.135200	0.715008
C17	C	0.051200	0.857400	0.588300	-0.038125
C18	C	0.114500	0.889500	0.528000	0.715008
C19	C	0.966400	0.722300	0.576400	-0.038125
C20	C	0.902100	0.638000	0.502800	0.715008
C21	C	0.051200	0.730900	0.142600	-0.038125
C22	C	0.114500	0.638500	0.110500	0.715008
C23	C	0.966400	0.854100	0.277700	-0.038125
C24	C	0.902100	0.864800	0.362000	0.715008
C25	C	0.551200	0.142600	0.730900	-0.038125
C26	C	0.614500	0.110500	0.638500	0.715008
C27	C	0.466400	0.277700	0.854100	-0.038125
C28	C	0.402100	0.362000	0.864800	0.715008
C29	C	0.551200	0.269100	0.411700	-0.038125
C30	C	0.614500	0.361500	0.472000	0.715008
C31	C	0.466400	0.145900	0.423600	-0.038125
C32	C	0.402100	0.135200	0.497200	0.715008
C33	C	0.551200	0.588300	0.857400	-0.038125
C34	C	0.614500	0.528000	0.889500	0.715008
C35	C	0.466400	0.576400	0.722300	-0.038125
C36	C	0.402100	0.502800	0.638000	0.715008
C37	C	0.948800	0.142600	0.730900	-0.038125
C38	C	0.885500	0.110500	0.638500	0.715008
C39	C	0.033600	0.277700	0.854100	-0.038125
C40	C	0.097900	0.362000	0.864800	0.715008
C41	C	0.948800	0.269100	0.411700	-0.038125
C42	C	0.885500	0.361500	0.472000	0.715008
C43	C	0.033600	0.145900	0.423600	-0.038125
C44	C	0.097900	0.135200	0.497200	0.715008
C45	C	0.948800	0.588300	0.857400	-0.038125
C46	C	0.885500	0.528000	0.889500	0.715008
C47	C	0.033600	0.576400	0.722300	-0.038125
C48	C	0.097900	0.502800	0.638000	0.715008
O1	O	0.479200	0.473100	0.234300	-0.336806
O2	O	0.378200	0.564100	0.395400	-0.697119
O3	O	0.348000	0.422700	0.395300	-0.611803
O4	O	0.595100	0.586100	0.201900	-0.697119
O5	O	0.651700	0.459200	0.060400	-0.611803
O6	O	0.479200	0.761200	0.526900	-0.336806
O7	O	0.378200	0.831300	0.435900	-0.697119
O8	O	0.348000	0.972600	0.577300	-0.611803
O9	O	0.595100	0.615800	0.413900	-0.697119
O10	O	0.651700	0.601200	0.540800	-0.611803
O11	O	0.479200	0.765700	0.238800	-0.336806
O12	O	0.378200	0.604600	0.168700	-0.697119
O13	O	0.348000	0.604700	0.027400	-0.611803
O14	O	0.595100	0.798100	0.384200	-0.697119
O15	O	0.651700	0.939600	0.398800	-0.611803
O16	O	0.020800	0.473100	0.234300	-0.336806
O17	O	0.121800	0.564100	0.395400	-0.697119
O18	O	0.152000	0.422700	0.395300	-0.611803
O19	O	0.904900	0.586100	0.201900	-0.697119
O20	O	0.848300	0.459200	0.060400	-0.611803
O21	O	0.020800	0.761200	0.526900	-0.336806
O22	O	0.121800	0.831300	0.435900	-0.697119
O23	O	0.152000	0.972600	0.577300	-0.611803
O24	O	0.904900	0.615800	0.413900	-0.697119
O25	O	0.848300	0.601200	0.540800	-0.611803
O26	O	0.020800	0.765700	0.238800	-0.336806
O27	O	0.121800	0.604600	0.168700	-0.697119
O28	O	0.152000	0.604700	0.027400	-0.611803
O29	O	0.904900	0.798100	0.384200	-0.697119
O30	O	0.848300	0.939600	0.398800	-0.611803
O31	O	0.520800	0.238800	0.765700	-0.336806
O32	O	0.621800	0.168700	0.604600	-0.697119
O33	O	0.652000	0.027400	0.604700	-0.611803
O34	O	0.404900	0.384200	0.798100	-0.697119
O35	O	0.348300	0.398800	0.939600	-0.611803
O36	O	0.520800	0.234300	0.473100	-0.336806
O37	O	0.621800	0.395400	0.564100	-0.697119
O38	O	0.652000	0.395300	0.422700	-0.611803
O39	O	0.404900	0.201900	0.586100	-0.697119
O40	O	0.348300	0.060400	0.459200	-0.611803
O41	O	0.520800	0.526900	0.761200	-0.336806
O42	O	0.621800	0.435900	0.831300	-0.697119
O43	O	0.652000	0.577300	0.972600	-0.611803
O44	O	0.404900	0.413900	0.615800	-0.697119
O45	O	0.348300	0.540800	0.601200	-0.611803
O46	O	0.979200	0.238800	0.765700	-0.336806
O47	O	0.878200	0.168700	0.604600	-0.697119
O48	O	0.848000	0.027400	0.604700	-0.611803
O49	O	0.095100	0.384200	0.798100	-0.697119
O50	O	0.151700	0.398800	0.939600	-0.611803
O51	O	0.979200	0.234300	0.473100	-0.336806
O52	O	0.878200	0.395400	0.564100	-0.697119
O53	O	0.848000	0.395300	0.422700	-0.611803
O54	O	0.095100	0.201900	0.586100	-0.697119
O55	O	0.151700	0.060400	0.459200	-0.611803
O56	O	0.979200	0.526900	0.761200	-0.336806
O57	O	0.878200	0.435900	0.831300	-0.697119
O58	O	0.848000	0.577300	0.972600	-0.611803
O59	O	0.095100	0.413900	0.615800	-0.697119
O60	O	0.151700	0.540800	0.601200	-0.611803
