data_OCIZIL_PM
_symmetry_space_group_name_H-M	'P1'
_cell_length_a	12.453000
_cell_length_b	18.167000
_cell_length_c	26.668000
_cell_angle_alpha	90.000000
_cell_angle_beta	90.000000
_cell_angle_gamma	90.000000
_symmetry_Int_Tables_number 1

loop_
_symmetry_equiv_pos_as_xyz
'x,y,z'

loop_
_atom_site_label
_atom_site_type_symbol
_atom_site_fract_x
_atom_site_fract_y
_atom_site_fract_z
_atom_site_charge
Zn1	Zn	0.419390	0.540090	0.269600	0.880802
Zn2	Zn	0.419390	0.459910	0.730400	0.880802
Zn3	Zn	0.580610	0.959910	0.769600	0.880802
Zn4	Zn	0.580610	0.040090	0.230400	0.880802
Zn5	Zn	0.116580	0.256490	0.535720	0.880802
Zn6	Zn	0.116580	0.743510	0.464280	0.880802
Zn7	Zn	0.883420	0.243510	0.035720	0.880802
Zn8	Zn	0.883420	0.756490	0.964280	0.880802
H1	H	0.939100	0.310200	0.451200	0.115985
H2	H	0.939100	0.689800	0.548800	0.115985
H3	H	0.060900	0.189800	0.951200	0.115985
H4	H	0.060900	0.810200	0.048800	0.115985
H5	H	0.860500	0.225100	0.388500	0.131842
H6	H	0.860500	0.774900	0.611500	0.131842
H7	H	0.139500	0.274900	0.888500	0.131842
H8	H	0.139500	0.725100	0.111500	0.131842
H9	H	0.053600	0.114000	0.480800	0.099706
H10	H	0.053600	0.886000	0.519200	0.099706
H11	H	0.946400	0.386000	0.980800	0.099706
H12	H	0.946400	0.614000	0.019200	0.099706
H13	H	0.862200	0.113800	0.338700	0.121699
H14	H	0.862200	0.886200	0.661300	0.121699
H15	H	0.137800	0.386200	0.838700	0.121699
H16	H	0.137800	0.613800	0.161300	0.121699
H17	H	0.818900	0.000200	0.305700	0.100465
H18	H	0.818900	0.999800	0.694300	0.100465
H19	H	0.181100	0.499800	0.805700	0.100465
H20	H	0.181100	0.500200	0.194300	0.100465
H21	H	0.941900	0.901400	0.425300	0.100465
H22	H	0.941900	0.098600	0.574700	0.100465
H23	H	0.058100	0.598600	0.925300	0.100465
H24	H	0.058100	0.401400	0.074700	0.100465
H25	H	0.990800	0.014000	0.456600	0.121699
H26	H	0.990800	0.986000	0.543400	0.121699
H27	H	0.009200	0.486000	0.956600	0.121699
H28	H	0.009200	0.514000	0.043400	0.121699
H29	H	0.738200	0.899900	0.289000	0.100465
H30	H	0.738200	0.100100	0.711000	0.100465
H31	H	0.261800	0.600100	0.789000	0.100465
H32	H	0.261800	0.399900	0.211000	0.100465
H33	H	0.658700	0.785400	0.272600	0.121699
H34	H	0.658700	0.214600	0.727400	0.121699
H35	H	0.341300	0.714600	0.772600	0.121699
H36	H	0.341300	0.285400	0.227400	0.121699
H37	H	0.846100	0.691000	0.374000	0.121699
H38	H	0.846100	0.309000	0.626000	0.121699
H39	H	0.153900	0.809000	0.874000	0.121699
H40	H	0.153900	0.191000	0.126000	0.121699
H41	H	0.918200	0.803400	0.393000	0.100465
H42	H	0.918200	0.196600	0.607000	0.100465
H43	H	0.081800	0.696600	0.893000	0.100465
H44	H	0.081800	0.303400	0.107000	0.100465
H45	H	0.543000	0.691100	0.286300	0.099706
H46	H	0.543000	0.308900	0.713700	0.099706
H47	H	0.457000	0.808900	0.786300	0.099706
H48	H	0.457000	0.191100	0.213700	0.099706
H49	H	0.642900	0.490600	0.320500	0.115985
H50	H	0.642900	0.509400	0.679500	0.115985
H51	H	0.357100	0.009400	0.820500	0.115985
H52	H	0.357100	0.990600	0.179500	0.115985
H53	H	0.785700	0.577100	0.345200	0.131842
H54	H	0.785700	0.422900	0.654800	0.131842
H55	H	0.214300	0.922900	0.845200	0.131842
H56	H	0.214300	0.077100	0.154800	0.131842
H57	H	0.192000	0.380600	0.330800	0.094939
H58	H	0.192000	0.619400	0.669200	0.094939
H59	H	0.808000	0.119400	0.830800	0.094939
H60	H	0.808000	0.880600	0.169200	0.094939
H61	H	0.096100	0.270400	0.336000	0.127916
H62	H	0.096100	0.729600	0.664000	0.127916
H63	H	0.903900	0.229600	0.836000	0.127916
H64	H	0.903900	0.770400	0.164000	0.127916
H65	H	0.371000	0.154100	0.326600	0.127916
H66	H	0.371000	0.845900	0.673400	0.127916
H67	H	0.629000	0.345900	0.826600	0.127916
H68	H	0.629000	0.654100	0.173400	0.127916
H69	H	0.468700	0.264400	0.327400	0.094939
H70	H	0.468700	0.735600	0.672600	0.094939
H71	H	0.531300	0.235600	0.827400	0.094939
H72	H	0.531300	0.764400	0.172600	0.094939
H73	H	0.129600	0.009800	0.294800	0.127916
H74	H	0.129600	0.990200	0.705200	0.127916
H75	H	0.870400	0.490200	0.794800	0.127916
H76	H	0.870400	0.509800	0.205200	0.127916
H77	H	0.143600	0.901100	0.339900	0.094939
H78	H	0.143600	0.098900	0.660100	0.094939
H79	H	0.856400	0.598900	0.839900	0.094939
H80	H	0.856400	0.401100	0.160100	0.094939
H81	H	0.267300	0.012200	0.457300	0.094939
H82	H	0.267300	0.987800	0.542700	0.094939
H83	H	0.732700	0.487800	0.957300	0.094939
H84	H	0.732700	0.512200	0.042700	0.094939
H85	H	0.258300	0.121600	0.412900	0.127916
H86	H	0.258300	0.878400	0.587100	0.127916
H87	H	0.741700	0.378400	0.912900	0.127916
H88	H	0.741700	0.621600	0.087100	0.127916
H89	H	0.954900	0.120500	0.166900	0.094939
H90	H	0.954900	0.879500	0.833100	0.094939
H91	H	0.045100	0.379500	0.666900	0.094939
H92	H	0.045100	0.620500	0.333100	0.094939
H93	H	0.972600	0.032600	0.230400	0.127916
H94	H	0.972600	0.967400	0.769600	0.127916
H95	H	0.027400	0.467400	0.730400	0.127916
H96	H	0.027400	0.532600	0.269600	0.127916
H97	H	0.079100	0.886100	0.127100	0.127916
H98	H	0.079100	0.113900	0.872900	0.127916
H99	H	0.920900	0.613900	0.627100	0.127916
H100	H	0.920900	0.386100	0.372900	0.127916
H101	H	0.049900	0.973800	0.064200	0.094939
H102	H	0.049900	0.026200	0.935800	0.094939
H103	H	0.950100	0.526200	0.564200	0.094939
H104	H	0.950100	0.473800	0.435800	0.094939
H105	H	0.228400	0.897700	0.193700	0.127916
H106	H	0.228400	0.102300	0.806300	0.127916
H107	H	0.771600	0.602300	0.693700	0.127916
H108	H	0.771600	0.397700	0.306300	0.127916
H109	H	0.347500	0.799900	0.197300	0.094939
H110	H	0.347500	0.200100	0.802700	0.094939
H111	H	0.652500	0.700100	0.697300	0.094939
H112	H	0.652500	0.299900	0.302700	0.094939
H113	H	0.120800	0.673800	0.260500	0.094939
H114	H	0.120800	0.326200	0.739500	0.094939
H115	H	0.879200	0.826200	0.760500	0.094939
H116	H	0.879200	0.173800	0.239500	0.094939
H117	H	0.997600	0.771200	0.256800	0.127916
H118	H	0.997600	0.228800	0.743200	0.127916
H119	H	0.002400	0.728800	0.756800	0.127916
H120	H	0.002400	0.271200	0.243200	0.127916
H121	H	0.642900	0.728100	0.012700	0.115985
H122	H	0.642900	0.271900	0.987300	0.115985
H123	H	0.357100	0.771900	0.512700	0.115985
H124	H	0.357100	0.228100	0.487300	0.115985
H125	H	0.544300	0.826100	0.056500	0.131842
H126	H	0.544300	0.173900	0.943500	0.131842
H127	H	0.455700	0.673900	0.556500	0.131842
H128	H	0.455700	0.326100	0.443500	0.131842
H129	H	0.829600	0.905800	0.014200	0.099706
H130	H	0.829600	0.094200	0.985800	0.099706
H131	H	0.170400	0.594200	0.514200	0.099706
H132	H	0.170400	0.405800	0.485800	0.099706
H133	H	0.805700	0.984900	0.085800	0.121699
H134	H	0.805700	0.015100	0.914200	0.121699
H135	H	0.194300	0.515100	0.585800	0.121699
H136	H	0.194300	0.484900	0.414200	0.121699
H137	H	0.771700	0.105900	0.111600	0.100465
H138	H	0.771700	0.894100	0.888400	0.100465
H139	H	0.228300	0.394100	0.611600	0.100465
H140	H	0.228300	0.605900	0.388400	0.100465
H141	H	0.460000	0.078200	0.074300	0.100465
H142	H	0.460000	0.921800	0.925700	0.100465
H143	H	0.540000	0.421800	0.574300	0.100465
H144	H	0.540000	0.578200	0.425700	0.100465
H145	H	0.493700	0.959900	0.049800	0.121699
H146	H	0.493700	0.040100	0.950200	0.121699
H147	H	0.506300	0.540100	0.549800	0.121699
H148	H	0.506300	0.459900	0.450200	0.121699
H149	H	0.717400	0.195700	0.157100	0.100465
H150	H	0.717400	0.804300	0.842900	0.100465
H151	H	0.282600	0.304300	0.657100	0.100465
H152	H	0.282600	0.695700	0.342900	0.100465
H153	H	0.681100	0.317400	0.181400	0.121699
H154	H	0.681100	0.682600	0.818600	0.121699
H155	H	0.318900	0.182600	0.681400	0.121699
H156	H	0.318900	0.817400	0.318600	0.121699
H157	H	0.422700	0.319200	0.090600	0.121699
H158	H	0.422700	0.680800	0.909400	0.121699
H159	H	0.577300	0.180800	0.590600	0.121699
H160	H	0.577300	0.819200	0.409400	0.121699
H161	H	0.459900	0.198800	0.065900	0.100465
H162	H	0.459900	0.801200	0.934100	0.100465
H163	H	0.540100	0.301200	0.565900	0.100465
H164	H	0.540100	0.698800	0.434100	0.100465
H165	H	0.487300	0.460300	0.090700	0.131842
H166	H	0.487300	0.539700	0.909300	0.131842
H167	H	0.512700	0.039700	0.590700	0.131842
H168	H	0.512700	0.960300	0.409300	0.131842
H169	H	0.443500	0.561500	0.146200	0.115985
H170	H	0.443500	0.438500	0.853800	0.115985
H171	H	0.556500	0.938500	0.646200	0.115985
H172	H	0.556500	0.061500	0.353800	0.115985
H173	H	0.523600	0.392600	0.230400	0.099706
H174	H	0.523600	0.607400	0.769600	0.099706
H175	H	0.476400	0.107400	0.730400	0.099706
H176	H	0.476400	0.892600	0.269600	0.099706
C1	C	0.952000	0.258800	0.449600	0.045414
C2	C	0.952000	0.741200	0.550400	0.045414
C3	C	0.048000	0.241200	0.949600	0.045414
C4	C	0.048000	0.758800	0.050400	0.045414
C5	C	0.908600	0.212500	0.414700	-0.140935
C6	C	0.908600	0.787500	0.585300	-0.140935
C7	C	0.091400	0.287500	0.914700	-0.140935
C8	C	0.091400	0.712500	0.085300	-0.140935
C9	C	0.013800	0.152600	0.465600	0.114163
C10	C	0.013800	0.847400	0.534400	0.114163
C11	C	0.986200	0.347400	0.965600	0.114163
C12	C	0.986200	0.652600	0.034400	0.114163
C13	C	0.923600	0.074900	0.401700	0.128322
C14	C	0.923600	0.925100	0.598300	0.128322
C15	C	0.076400	0.425100	0.901700	0.128322
C16	C	0.076400	0.574900	0.098300	0.128322
C17	C	0.877200	0.070400	0.357300	-0.145402
C18	C	0.877200	0.929600	0.642700	-0.145402
C19	C	0.122800	0.429600	0.857300	-0.145402
C20	C	0.122800	0.570400	0.142700	-0.145402
C21	C	0.850500	0.002200	0.338100	-0.083519
C22	C	0.850500	0.997800	0.661900	-0.083519
C23	C	0.149500	0.497800	0.838100	-0.083519
C24	C	0.149500	0.502200	0.161900	-0.083519
C25	C	0.866900	0.938100	0.362700	0.027248
C26	C	0.866900	0.061900	0.637300	0.027248
C27	C	0.133100	0.561900	0.862700	0.027248
C28	C	0.133100	0.438100	0.137300	0.027248
C29	C	0.922900	0.944600	0.407300	-0.083519
C30	C	0.922900	0.055400	0.592700	-0.083519
C31	C	0.077100	0.555400	0.907300	-0.083519
C32	C	0.077100	0.444600	0.092700	-0.083519
C33	C	0.951300	0.011400	0.426100	-0.145402
C34	C	0.951300	0.988600	0.573900	-0.145402
C35	C	0.048700	0.488600	0.926100	-0.145402
C36	C	0.048700	0.511400	0.073900	-0.145402
C37	C	0.831900	0.863900	0.346000	0.027248
C38	C	0.831900	0.136100	0.654000	0.027248
C39	C	0.168100	0.636100	0.846000	0.027248
C40	C	0.168100	0.363900	0.154000	0.027248
C41	C	0.758200	0.857900	0.308100	-0.083519
C42	C	0.758200	0.142100	0.691900	-0.083519
C43	C	0.241800	0.642100	0.808100	-0.083519
C44	C	0.241800	0.357900	0.191900	-0.083519
C45	C	0.712400	0.788900	0.297800	-0.145402
C46	C	0.712400	0.211100	0.702200	-0.145402
C47	C	0.287600	0.711100	0.797800	-0.145402
C48	C	0.287600	0.288900	0.202200	-0.145402
C49	C	0.742200	0.728000	0.322300	0.128322
C50	C	0.742200	0.272000	0.677700	0.128322
C51	C	0.257800	0.772000	0.822300	0.128322
C52	C	0.257800	0.228000	0.177700	0.128322
C53	C	0.820700	0.733700	0.357200	-0.145402
C54	C	0.820700	0.266300	0.642800	-0.145402
C55	C	0.179300	0.766300	0.857200	-0.145402
C56	C	0.179300	0.233700	0.142800	-0.145402
C57	C	0.863400	0.800900	0.368300	-0.083519
C58	C	0.863400	0.199100	0.631700	-0.083519
C59	C	0.136600	0.699100	0.868300	-0.083519
C60	C	0.136600	0.300900	0.131700	-0.083519
C61	C	0.586600	0.651200	0.297100	0.114163
C62	C	0.586600	0.348800	0.702900	0.114163
C63	C	0.413400	0.848800	0.797100	0.114163
C64	C	0.413400	0.151200	0.202900	0.114163
C65	C	0.640800	0.542500	0.316700	0.045414
C66	C	0.640800	0.457500	0.683300	0.045414
C67	C	0.359200	0.957500	0.816700	0.045414
C68	C	0.359200	0.042500	0.183300	0.045414
C69	C	0.720000	0.589400	0.329100	-0.140935
C70	C	0.720000	0.410600	0.670900	-0.140935
C71	C	0.280000	0.910600	0.829100	-0.140935
C72	C	0.280000	0.089400	0.170900	-0.140935
C73	C	0.403800	0.402200	0.318000	0.649059
C74	C	0.403800	0.597800	0.682000	0.649059
C75	C	0.596200	0.097800	0.818000	0.649059
C76	C	0.596200	0.902200	0.182000	0.649059
C77	C	0.339800	0.332600	0.327600	-0.174009
C78	C	0.339800	0.667400	0.672400	-0.174009
C79	C	0.660200	0.167400	0.827600	-0.174009
C80	C	0.660200	0.832600	0.172400	-0.174009
C81	C	0.228700	0.334800	0.330400	0.015249
C82	C	0.228700	0.665200	0.669600	0.015249
C83	C	0.771300	0.165200	0.830400	0.015249
C84	C	0.771300	0.834800	0.169600	0.015249
C85	C	0.171900	0.269700	0.332400	-0.239485
C86	C	0.171900	0.730300	0.667600	-0.239485
C87	C	0.828100	0.230300	0.832400	-0.239485
C88	C	0.828100	0.769700	0.167600	-0.239485
C89	C	0.225900	0.203200	0.329300	0.274248
C90	C	0.225900	0.796800	0.670700	0.274248
C91	C	0.774100	0.296800	0.829300	0.274248
C92	C	0.774100	0.703200	0.170700	0.274248
C93	C	0.334900	0.200100	0.327700	-0.239485
C94	C	0.334900	0.799900	0.672300	-0.239485
C95	C	0.665100	0.299900	0.827700	-0.239485
C96	C	0.665100	0.700100	0.172300	-0.239485
C97	C	0.392400	0.265600	0.327500	0.015249
C98	C	0.392400	0.734400	0.672500	0.015249
C99	C	0.607600	0.234400	0.827500	0.015249
C100	C	0.607600	0.765600	0.172500	0.015249
C101	C	0.186700	0.076900	0.350700	0.274248
C102	C	0.186700	0.923100	0.649300	0.274248
C103	C	0.813300	0.423100	0.850700	0.274248
C104	C	0.813300	0.576900	0.149300	0.274248
C105	C	0.156300	0.010400	0.328200	-0.239485
C106	C	0.156300	0.989600	0.671800	-0.239485
C107	C	0.843700	0.489600	0.828200	-0.239485
C108	C	0.843700	0.510400	0.171800	-0.239485
C109	C	0.165500	0.946200	0.354800	0.015249
C110	C	0.165500	0.053800	0.645200	0.015249
C111	C	0.834500	0.553800	0.854800	0.015249
C112	C	0.834500	0.446200	0.145200	0.015249
C113	C	0.206600	0.946000	0.403700	-0.174009
C114	C	0.206600	0.054000	0.596300	-0.174009
C115	C	0.793400	0.554000	0.903700	-0.174009
C116	C	0.793400	0.446000	0.096300	-0.174009
C117	C	0.239200	0.011900	0.424200	0.015249
C118	C	0.239200	0.988100	0.575800	0.015249
C119	C	0.760800	0.488100	0.924200	0.015249
C120	C	0.760800	0.511900	0.075800	0.015249
C121	C	0.232400	0.077200	0.398500	-0.239485
C122	C	0.232400	0.922800	0.601500	-0.239485
C123	C	0.767600	0.422800	0.898500	-0.239485
C124	C	0.767600	0.577200	0.101500	-0.239485
C125	C	0.203100	0.877200	0.435700	0.649059
C126	C	0.203100	0.122800	0.564300	0.649059
C127	C	0.796900	0.622800	0.935700	0.649059
C128	C	0.796900	0.377200	0.064300	0.649059
C129	C	0.985900	0.111800	0.068300	0.649059
C130	C	0.985900	0.888200	0.931700	0.649059
C131	C	0.014100	0.388200	0.568300	0.649059
C132	C	0.014100	0.611800	0.431700	0.649059
C133	C	0.002200	0.055800	0.109700	-0.174009
C134	C	0.002200	0.944200	0.890300	-0.174009
C135	C	0.997800	0.444200	0.609700	-0.174009
C136	C	0.997800	0.555800	0.390300	-0.174009
C137	C	0.979100	0.072400	0.158700	0.015249
C138	C	0.979100	0.927600	0.841300	0.015249
C139	C	0.020900	0.427600	0.658700	0.015249
C140	C	0.020900	0.572400	0.341300	0.015249
C141	C	0.990200	0.020500	0.196700	-0.239485
C142	C	0.990200	0.979500	0.803300	-0.239485
C143	C	0.009800	0.479500	0.696700	-0.239485
C144	C	0.009800	0.520500	0.303300	-0.239485
C145	C	0.027600	0.950500	0.184500	0.274248
C146	C	0.027600	0.049500	0.815500	0.274248
C147	C	0.972400	0.549500	0.684500	0.274248
C148	C	0.972400	0.450500	0.315500	0.274248
C149	C	0.052000	0.933400	0.135500	-0.239485
C150	C	0.052000	0.066600	0.864500	-0.239485
C151	C	0.948000	0.566600	0.635500	-0.239485
C152	C	0.948000	0.433400	0.364500	-0.239485
C153	C	0.036400	0.986300	0.098200	0.015249
C154	C	0.036400	0.013700	0.901800	0.015249
C155	C	0.963600	0.513700	0.598200	0.015249
C156	C	0.963600	0.486300	0.401800	0.015249
C157	C	0.103000	0.843500	0.223200	0.274248
C158	C	0.103000	0.156500	0.776800	0.274248
C159	C	0.897000	0.656500	0.723200	0.274248
C160	C	0.897000	0.343500	0.276800	0.274248
C161	C	0.205500	0.851700	0.206900	-0.239485
C162	C	0.205500	0.148300	0.793100	-0.239485
C163	C	0.794500	0.648300	0.706900	-0.239485
C164	C	0.794500	0.351700	0.293100	-0.239485
C165	C	0.276400	0.793800	0.209500	0.015249
C166	C	0.276400	0.206200	0.790500	0.015249
C167	C	0.723600	0.706200	0.709500	0.015249
C168	C	0.723600	0.293800	0.290500	0.015249
C169	C	0.245500	0.725800	0.229800	-0.174009
C170	C	0.245500	0.274200	0.770200	-0.174009
C171	C	0.754500	0.774200	0.729800	-0.174009
C172	C	0.754500	0.225800	0.270200	-0.174009
C173	C	0.143000	0.719500	0.246600	0.015249
C174	C	0.143000	0.280500	0.753400	0.015249
C175	C	0.857000	0.780500	0.746600	0.015249
C176	C	0.857000	0.219500	0.253400	0.015249
C177	C	0.068700	0.777000	0.244400	-0.239485
C178	C	0.068700	0.223000	0.755600	-0.239485
C179	C	0.931300	0.723000	0.744400	-0.239485
C180	C	0.931300	0.277000	0.255600	-0.239485
C181	C	0.325500	0.663500	0.234000	0.649059
C182	C	0.325500	0.336500	0.766000	0.649059
C183	C	0.674500	0.836500	0.734000	0.649059
C184	C	0.674500	0.163500	0.266000	0.649059
C185	C	0.667500	0.776900	0.018400	0.045414
C186	C	0.667500	0.223100	0.981600	0.045414
C187	C	0.332500	0.723100	0.518400	0.045414
C188	C	0.332500	0.276900	0.481600	0.045414
C189	C	0.614300	0.830100	0.042600	-0.140935
C190	C	0.614300	0.169900	0.957400	-0.140935
C191	C	0.385700	0.669900	0.542600	-0.140935
C192	C	0.385700	0.330100	0.457400	-0.140935
C193	C	0.770400	0.873600	0.019100	0.114163
C194	C	0.770400	0.126400	0.980900	0.114163
C195	C	0.229600	0.626400	0.519100	0.114163
C196	C	0.229600	0.373600	0.480900	0.114163
C197	C	0.655200	0.962600	0.063600	0.128322
C198	C	0.655200	0.037400	0.936400	0.128322
C199	C	0.344800	0.537400	0.563600	0.128322
C200	C	0.344800	0.462600	0.436400	0.128322
C201	C	0.735300	0.004700	0.082900	-0.145402
C202	C	0.735300	0.995300	0.917100	-0.145402
C203	C	0.264700	0.495300	0.582900	-0.145402
C204	C	0.264700	0.504700	0.417100	-0.145402
C205	C	0.714900	0.076700	0.098500	-0.083519
C206	C	0.714900	0.923300	0.901500	-0.083519
C207	C	0.285100	0.423300	0.598500	-0.083519
C208	C	0.285100	0.576700	0.401500	-0.083519
C209	C	0.612100	0.106100	0.095100	0.027248
C210	C	0.612100	0.893900	0.904900	0.027248
C211	C	0.387900	0.393900	0.595100	0.027248
C212	C	0.387900	0.606100	0.404900	0.027248
C213	C	0.531200	0.059800	0.076500	-0.083519
C214	C	0.531200	0.940200	0.923500	-0.083519
C215	C	0.468800	0.440200	0.576500	-0.083519
C216	C	0.468800	0.559800	0.423500	-0.083519
C217	C	0.550700	0.990100	0.061600	-0.145402
C218	C	0.550700	0.009900	0.938400	-0.145402
C219	C	0.449300	0.509900	0.561600	-0.145402
C220	C	0.449300	0.490100	0.438400	-0.145402
C221	C	0.590800	0.183300	0.110100	0.027248
C222	C	0.590800	0.816700	0.889900	0.027248
C223	C	0.409200	0.316700	0.610100	0.027248
C224	C	0.409200	0.683300	0.389900	0.027248
C225	C	0.656500	0.220200	0.143700	-0.083519
C226	C	0.656500	0.779800	0.856300	-0.083519
C227	C	0.343500	0.279800	0.643700	-0.083519
C228	C	0.343500	0.720200	0.356300	-0.083519
C229	C	0.635200	0.292800	0.158400	-0.145402
C230	C	0.635200	0.707200	0.841600	-0.145402
C231	C	0.364800	0.207200	0.658400	-0.145402
C232	C	0.364800	0.792800	0.341600	-0.145402
C233	C	0.545500	0.328200	0.138600	0.128322
C234	C	0.545500	0.671800	0.861400	0.128322
C235	C	0.454500	0.171800	0.638600	0.128322
C236	C	0.454500	0.828200	0.361400	0.128322
C237	C	0.482400	0.294000	0.104600	-0.145402
C238	C	0.482400	0.706000	0.895400	-0.145402
C239	C	0.517600	0.206000	0.604600	-0.145402
C240	C	0.517600	0.794000	0.395400	-0.145402
C241	C	0.504600	0.222000	0.090100	-0.083519
C242	C	0.504600	0.778000	0.909900	-0.083519
C243	C	0.495400	0.278000	0.590100	-0.083519
C244	C	0.495400	0.722000	0.409900	-0.083519
C245	C	0.489100	0.459000	0.126300	-0.140935
C246	C	0.489100	0.541000	0.873700	-0.140935
C247	C	0.510900	0.041000	0.626300	-0.140935
C248	C	0.510900	0.959000	0.373700	-0.140935
C249	C	0.463500	0.513400	0.156600	0.045414
C250	C	0.463500	0.486600	0.843400	0.045414
C251	C	0.536500	0.986600	0.656600	0.045414
C252	C	0.536500	0.013400	0.343400	0.045414
C253	C	0.507000	0.422500	0.202300	0.114163
C254	C	0.507000	0.577500	0.797700	0.114163
C255	C	0.493000	0.077500	0.702300	0.114163
C256	C	0.493000	0.922500	0.297700	0.114163
N1	N	0.014900	0.221700	0.480900	-0.383143
N2	N	0.014900	0.778300	0.519100	-0.383143
N3	N	0.985100	0.278300	0.980900	-0.383143
N4	N	0.985100	0.721700	0.019100	-0.383143
N5	N	0.948800	0.144200	0.425500	0.040599
N6	N	0.948800	0.855800	0.574500	0.040599
N7	N	0.051200	0.355800	0.925500	0.040599
N8	N	0.051200	0.644200	0.074500	0.040599
N9	N	0.687800	0.658700	0.314100	0.040599
N10	N	0.687800	0.341300	0.685900	0.040599
N11	N	0.312200	0.841300	0.814100	0.040599
N12	N	0.312200	0.158700	0.185900	0.040599
N13	N	0.555700	0.582500	0.297400	-0.383143
N14	N	0.555700	0.417500	0.702600	-0.383143
N15	N	0.444300	0.917500	0.797400	-0.383143
N16	N	0.444300	0.082500	0.202600	-0.383143
N17	N	0.765000	0.805900	0.003060	-0.383143
N18	N	0.765000	0.194100	0.996940	-0.383143
N19	N	0.235000	0.694100	0.503060	-0.383143
N20	N	0.235000	0.305900	0.496940	-0.383143
N21	N	0.678500	0.891100	0.043910	0.040599
N22	N	0.678500	0.108900	0.956090	0.040599
N23	N	0.321500	0.608900	0.543910	0.040599
N24	N	0.321500	0.391100	0.456090	0.040599
N25	N	0.518300	0.401200	0.154880	0.040599
N26	N	0.518300	0.598800	0.845120	0.040599
N27	N	0.481700	0.098800	0.654880	0.040599
N28	N	0.481700	0.901200	0.345120	0.040599
N29	N	0.470100	0.490100	0.205400	-0.383143
N30	N	0.470100	0.509900	0.794600	-0.383143
N31	N	0.529900	0.009900	0.705400	-0.383143
N32	N	0.529900	0.990100	0.294600	-0.383143
O1	O	0.350400	0.458200	0.303980	-0.613731
O2	O	0.350400	0.541800	0.696020	-0.613731
O3	O	0.649600	0.041800	0.803980	-0.613731
O4	O	0.649600	0.958200	0.196020	-0.613731
O5	O	0.505100	0.399500	0.322000	-0.610696
O6	O	0.505100	0.600500	0.678000	-0.610696
O7	O	0.494900	0.100500	0.822000	-0.610696
O8	O	0.494900	0.899500	0.178000	-0.610696
O9	O	0.160600	0.140900	0.324900	-0.256396
O10	O	0.160600	0.859100	0.675100	-0.256396
O11	O	0.839400	0.359100	0.824900	-0.256396
O12	O	0.839400	0.640900	0.175100	-0.256396
O13	O	0.142200	0.825400	0.419430	-0.613731
O14	O	0.142200	0.174600	0.580570	-0.613731
O15	O	0.857800	0.674600	0.919430	-0.613731
O16	O	0.857800	0.325400	0.080570	-0.613731
O17	O	0.245100	0.877300	0.476190	-0.610696
O18	O	0.245100	0.122700	0.523810	-0.610696
O19	O	0.754900	0.622700	0.976190	-0.610696
O20	O	0.754900	0.377300	0.023810	-0.610696
O21	O	0.945500	0.173200	0.083070	-0.613731
O22	O	0.945500	0.826800	0.916930	-0.613731
O23	O	0.054500	0.326800	0.583070	-0.613731
O24	O	0.054500	0.673200	0.416930	-0.613731
O25	O	0.007300	0.097200	0.024630	-0.610696
O26	O	0.007300	0.902800	0.975370	-0.610696
O27	O	0.992700	0.402800	0.524630	-0.610696
O28	O	0.992700	0.597200	0.475370	-0.610696
O29	O	0.029400	0.901100	0.223650	-0.256396
O30	O	0.029400	0.098900	0.776350	-0.256396
O31	O	0.970600	0.598900	0.723650	-0.256396
O32	O	0.970600	0.401100	0.276350	-0.256396
O33	O	0.297600	0.607700	0.260110	-0.613731
O34	O	0.297600	0.392300	0.739890	-0.613731
O35	O	0.702400	0.892300	0.760110	-0.613731
O36	O	0.702400	0.107700	0.239890	-0.613731
O37	O	0.412000	0.669500	0.213000	-0.610696
O38	O	0.412000	0.330500	0.787000	-0.610696
O39	O	0.588000	0.830500	0.713000	-0.610696
O40	O	0.588000	0.169500	0.287000	-0.610696
