data_OFEHEO_clean_PM
_symmetry_space_group_name_H-M	'P1'
_cell_length_a	16.282000
_cell_length_b	17.647400
_cell_length_c	17.647400
_cell_angle_alpha	77.712901
_cell_angle_beta	62.528100
_cell_angle_gamma	62.528101
_symmetry_Int_Tables_number 1

loop_
_symmetry_equiv_pos_as_xyz
'x,y,z'

loop_
_atom_site_label
_atom_site_type_symbol
_atom_site_fract_x
_atom_site_fract_y
_atom_site_fract_z
_atom_site_charge
Cd1	Cd	0.538580	0.591350	0.432000	0.989243
Cd2	Cd	0.061930	0.908650	0.068000	0.989243
Cd3	Cd	0.970580	0.568000	0.091350	0.989243
Cd4	Cd	0.129930	0.932000	0.408650	0.989243
Cd5	Cd	0.461420	0.408650	0.568000	0.989243
Cd6	Cd	0.938070	0.091350	0.932000	0.989243
Cd7	Cd	0.029420	0.432000	0.908650	0.989243
Cd8	Cd	0.870070	0.068000	0.591350	0.989243
H1	H	0.669700	0.477700	0.150100	0.404060
H2	H	0.506900	0.612100	0.734500	0.130465
H3	H	0.581600	0.555500	0.600300	0.079007
H4	H	0.370600	0.839400	0.642600	0.130465
H5	H	0.446900	0.776600	0.512400	0.079007
H6	H	0.747100	0.582400	0.433600	0.101583
H7	H	0.800000	0.731500	0.227100	0.101583
H8	H	0.820100	0.812800	0.298400	0.108919
H9	H	0.771800	0.662800	0.502600	0.108919
H10	H	0.877300	0.805600	0.415400	0.118554
H11	H	0.759000	0.855200	0.465400	0.118554
H12	H	0.819400	0.771800	0.504200	0.118554
H13	H	0.797500	0.022300	0.349900	0.404060
H14	H	0.353500	0.887900	0.765500	0.130465
H15	H	0.237400	0.944500	0.899700	0.079007
H16	H	0.352600	0.660600	0.857400	0.130465
H17	H	0.235900	0.723400	0.987600	0.079007
H18	H	0.263100	0.917600	0.066400	0.101583
H19	H	0.258600	0.768500	0.272900	0.101583
H20	H	0.431300	0.687200	0.201600	0.108919
H21	H	0.437200	0.837200	0.997400	0.108919
H22	H	0.598300	0.694400	0.084600	0.118554
H23	H	0.579600	0.644800	0.034600	0.118554
H24	H	0.595400	0.728200	0.995800	0.118554
H25	H	0.819800	0.849900	0.977700	0.404060
H26	H	0.241400	0.265500	0.112100	0.130465
H27	H	0.181900	0.399700	0.055500	0.079007
H28	H	0.013200	0.357400	0.339400	0.130465
H29	H	0.959300	0.487600	0.276600	0.079007
H30	H	0.180700	0.566400	0.082400	0.101583
H31	H	0.027100	0.772900	0.231500	0.101583
H32	H	0.118500	0.701600	0.312800	0.108919
H33	H	0.274400	0.497400	0.162800	0.108919
H34	H	0.292700	0.584600	0.305600	0.118554
H35	H	0.224400	0.534600	0.355200	0.118554
H36	H	0.323600	0.495800	0.271800	0.118554
H37	H	0.147400	0.650100	0.522300	0.404060
H38	H	0.119000	0.234500	0.387900	0.130465
H39	H	0.137100	0.100300	0.444500	0.079007
H40	H	0.210000	0.142600	0.160600	0.130465
H41	H	0.223500	0.012400	0.223400	0.079007
H42	H	0.329500	0.933600	0.417600	0.101583
H43	H	0.531500	0.727100	0.268500	0.101583
H44	H	0.632900	0.798400	0.187200	0.108919
H45	H	0.434600	0.002600	0.337200	0.108919
H46	H	0.682900	0.915400	0.194400	0.118554
H47	H	0.614200	0.965400	0.144800	0.118554
H48	H	0.591200	0.004200	0.228200	0.118554
H49	H	0.330300	0.522300	0.849900	0.404060
H50	H	0.493100	0.387900	0.265500	0.130465
H51	H	0.418400	0.444500	0.399700	0.079007
H52	H	0.629400	0.160600	0.357400	0.130465
H53	H	0.553100	0.223400	0.487600	0.079007
H54	H	0.252900	0.417600	0.566400	0.101583
H55	H	0.200000	0.268500	0.772900	0.101583
H56	H	0.179900	0.187200	0.701600	0.108919
H57	H	0.228200	0.337200	0.497400	0.108919
H58	H	0.122700	0.194400	0.584600	0.118554
H59	H	0.241000	0.144800	0.534600	0.118554
H60	H	0.180600	0.228200	0.495800	0.118554
H61	H	0.202500	0.977700	0.650100	0.404060
H62	H	0.646500	0.112100	0.234500	0.130465
H63	H	0.762600	0.055500	0.100300	0.079007
H64	H	0.647400	0.339400	0.142600	0.130465
H65	H	0.764100	0.276600	0.012400	0.079007
H66	H	0.736900	0.082400	0.933600	0.101583
H67	H	0.741400	0.231500	0.727100	0.101583
H68	H	0.568700	0.312800	0.798400	0.108919
H69	H	0.562800	0.162800	0.002600	0.108919
H70	H	0.401700	0.305600	0.915400	0.118554
H71	H	0.420400	0.355200	0.965400	0.118554
H72	H	0.404600	0.271800	0.004200	0.118554
H73	H	0.180200	0.150100	0.022300	0.404060
H74	H	0.758600	0.734500	0.887900	0.130465
H75	H	0.818100	0.600300	0.944500	0.079007
H76	H	0.986800	0.642600	0.660600	0.130465
H77	H	0.040700	0.512400	0.723400	0.079007
H78	H	0.819300	0.433600	0.917600	0.101583
H79	H	0.972900	0.227100	0.768500	0.101583
H80	H	0.881500	0.298400	0.687200	0.108919
H81	H	0.725600	0.502600	0.837200	0.108919
H82	H	0.707300	0.415400	0.694400	0.118554
H83	H	0.775600	0.465400	0.644800	0.118554
H84	H	0.676400	0.504200	0.728200	0.118554
H85	H	0.852600	0.349900	0.477700	0.404060
H86	H	0.881000	0.765500	0.612100	0.130465
H87	H	0.862900	0.899700	0.555500	0.079007
H88	H	0.790000	0.857400	0.839400	0.130465
H89	H	0.776500	0.987600	0.776600	0.079007
H90	H	0.670500	0.066400	0.582400	0.101583
H91	H	0.468500	0.272900	0.731500	0.101583
H92	H	0.367100	0.201600	0.812800	0.108919
H93	H	0.565400	0.997400	0.662800	0.108919
H94	H	0.317100	0.084600	0.805600	0.118554
H95	H	0.385800	0.034600	0.855200	0.118554
H96	H	0.408800	0.995800	0.771800	0.118554
C1	C	0.828660	0.490980	0.090820	0.608559
C2	C	0.605720	0.515680	0.255440	0.623684
C3	C	0.424140	0.731690	0.705770	0.095008
C4	C	0.686740	0.538840	0.244340	-0.011781
C5	C	0.755620	0.598320	0.277620	0.357683
C6	C	0.771270	0.647990	0.323430	-0.077797
C7	C	0.491560	0.646540	0.690860	-0.199862
C8	C	0.536320	0.612950	0.609450	0.175048
C9	C	0.410840	0.780970	0.636350	-0.199862
C10	C	0.457500	0.742710	0.558090	0.175048
C11	C	0.776890	0.532220	0.175560	0.018918
C12	C	0.762510	0.628260	0.405720	-0.045382
C13	C	0.793560	0.717680	0.282860	-0.045382
C14	C	0.798200	0.746200	0.407400	0.120446
C15	C	0.806140	0.766160	0.325560	-0.165345
C16	C	0.776700	0.677100	0.447300	-0.165345
C17	C	0.815100	0.799700	0.452300	-0.349692
C18	C	0.910460	0.009020	0.409180	0.608559
C19	C	0.876840	0.984320	0.244560	0.623684
C20	C	0.361600	0.768310	0.794230	0.095008
C21	C	0.969920	0.961160	0.255660	-0.011781
C22	C	0.131560	0.901680	0.222380	0.357683
C23	C	0.242690	0.852010	0.176570	-0.077797
C24	C	0.328960	0.853460	0.809140	-0.199862
C25	C	0.258720	0.887050	0.890550	0.175048
C26	C	0.328160	0.719030	0.863650	-0.199862
C27	C	0.258300	0.757290	0.941910	0.175048
C28	C	0.984670	0.967780	0.324440	0.018918
C29	C	0.296490	0.871740	0.094280	-0.045382
C30	C	0.294100	0.782320	0.217140	-0.045382
C31	C	0.451800	0.753800	0.092600	0.120446
C32	C	0.397860	0.733840	0.174440	-0.165345
C33	C	0.401100	0.822900	0.052700	-0.165345
C34	C	0.567100	0.700300	0.047700	-0.349692
C35	C	0.919480	0.909180	0.990980	0.608559
C36	C	0.861160	0.744560	0.015680	0.623684
C37	C	0.129910	0.294230	0.231690	0.095008
C38	C	0.931080	0.755660	0.038840	-0.011781
C39	C	0.033240	0.722380	0.098320	0.357683
C40	C	0.094700	0.676570	0.147990	-0.077797
C41	C	0.182420	0.309140	0.146540	-0.199862
C42	C	0.145770	0.390550	0.112950	0.175048
C43	C	0.047190	0.363650	0.280970	-0.199862
C44	C	0.015590	0.441910	0.242710	0.175048
C45	C	0.952450	0.824440	0.032220	0.018918
C46	C	0.168230	0.594280	0.128260	-0.045382
C47	C	0.076420	0.717140	0.217680	-0.045382
C48	C	0.205600	0.592600	0.246200	0.120446
C49	C	0.131700	0.674440	0.266160	-0.165345
C50	C	0.224000	0.552700	0.177100	-0.165345
C51	C	0.267400	0.547700	0.299700	-0.349692
C52	C	0.319640	0.590820	0.509020	0.608559
C53	C	0.121400	0.755440	0.484320	0.623684
C54	C	0.155830	0.205770	0.268310	0.095008
C55	C	0.225580	0.744340	0.461160	-0.011781
C56	C	0.353940	0.777620	0.401680	0.357683
C57	C	0.419260	0.823430	0.352010	-0.077797
C58	C	0.138100	0.190860	0.353460	-0.199862
C59	C	0.149270	0.109450	0.387050	0.175048
C60	C	0.191810	0.136350	0.219030	-0.199862
C61	C	0.200210	0.058090	0.257290	0.175048
C62	C	0.309110	0.675560	0.467780	0.018918
C63	C	0.390770	0.905720	0.371740	-0.045382
C64	C	0.511240	0.782860	0.282320	-0.045382
C65	C	0.544400	0.907400	0.253800	0.120446
C66	C	0.572300	0.825560	0.233840	-0.165345
C67	C	0.453800	0.947300	0.322900	-0.165345
C68	C	0.614800	0.952300	0.200300	-0.349692
C69	C	0.171340	0.509020	0.909180	0.608559
C70	C	0.394280	0.484320	0.744560	0.623684
C71	C	0.575860	0.268310	0.294230	0.095008
C72	C	0.313260	0.461160	0.755660	-0.011781
C73	C	0.244380	0.401680	0.722380	0.357683
C74	C	0.228730	0.352010	0.676570	-0.077797
C75	C	0.508440	0.353460	0.309140	-0.199862
C76	C	0.463680	0.387050	0.390550	0.175048
C77	C	0.589160	0.219030	0.363650	-0.199862
C78	C	0.542500	0.257290	0.441910	0.175048
C79	C	0.223110	0.467780	0.824440	0.018918
C80	C	0.237490	0.371740	0.594280	-0.045382
C81	C	0.206440	0.282320	0.717140	-0.045382
C82	C	0.201800	0.253800	0.592600	0.120446
C83	C	0.193860	0.233840	0.674440	-0.165345
C84	C	0.223300	0.322900	0.552700	-0.165345
C85	C	0.184900	0.200300	0.547700	-0.349692
C86	C	0.089540	0.990980	0.590820	0.608559
C87	C	0.123160	0.015680	0.755440	0.623684
C88	C	0.638400	0.231690	0.205770	0.095008
C89	C	0.030080	0.038840	0.744340	-0.011781
C90	C	0.868440	0.098320	0.777620	0.357683
C91	C	0.757310	0.147990	0.823430	-0.077797
C92	C	0.671040	0.146540	0.190860	-0.199862
C93	C	0.741280	0.112950	0.109450	0.175048
C94	C	0.671840	0.280970	0.136350	-0.199862
C95	C	0.741700	0.242710	0.058090	0.175048
C96	C	0.015330	0.032220	0.675560	0.018918
C97	C	0.703510	0.128260	0.905720	-0.045382
C98	C	0.705900	0.217680	0.782860	-0.045382
C99	C	0.548200	0.246200	0.907400	0.120446
C100	C	0.602140	0.266160	0.825560	-0.165345
C101	C	0.598900	0.177100	0.947300	-0.165345
C102	C	0.432900	0.299700	0.952300	-0.349692
C103	C	0.080520	0.090820	0.009020	0.608559
C104	C	0.138840	0.255440	0.984320	0.623684
C105	C	0.870090	0.705770	0.768310	0.095008
C106	C	0.068920	0.244340	0.961160	-0.011781
C107	C	0.966760	0.277620	0.901680	0.357683
C108	C	0.905300	0.323430	0.852010	-0.077797
C109	C	0.817580	0.690860	0.853460	-0.199862
C110	C	0.854230	0.609450	0.887050	0.175048
C111	C	0.952810	0.636350	0.719030	-0.199862
C112	C	0.984410	0.558090	0.757290	0.175048
C113	C	0.047550	0.175560	0.967780	0.018918
C114	C	0.831770	0.405720	0.871740	-0.045382
C115	C	0.923580	0.282860	0.782320	-0.045382
C116	C	0.794400	0.407400	0.753800	0.120446
C117	C	0.868300	0.325560	0.733840	-0.165345
C118	C	0.776000	0.447300	0.822900	-0.165345
C119	C	0.732600	0.452300	0.700300	-0.349692
C120	C	0.680360	0.409180	0.490980	0.608559
C121	C	0.878600	0.244560	0.515680	0.623684
C122	C	0.844170	0.794230	0.731690	0.095008
C123	C	0.774420	0.255660	0.538840	-0.011781
C124	C	0.646060	0.222380	0.598320	0.357683
C125	C	0.580740	0.176570	0.647990	-0.077797
C126	C	0.861900	0.809140	0.646540	-0.199862
C127	C	0.850730	0.890550	0.612950	0.175048
C128	C	0.808190	0.863650	0.780970	-0.199862
C129	C	0.799790	0.941910	0.742710	0.175048
C130	C	0.690890	0.324440	0.532220	0.018918
C131	C	0.609230	0.094280	0.628260	-0.045382
C132	C	0.488760	0.217140	0.717680	-0.045382
C133	C	0.455600	0.092600	0.746200	0.120446
C134	C	0.427700	0.174440	0.766160	-0.165345
C135	C	0.546200	0.052700	0.677100	-0.165345
C136	C	0.385200	0.047700	0.799700	-0.349692
N1	N	0.517850	0.658510	0.544390	-0.355931
N2	N	0.674620	0.579930	0.309030	-0.456597
N3	N	0.820540	0.569690	0.196590	-0.456013
N4	N	0.220750	0.841490	0.955610	-0.355931
N5	N	0.063580	0.920070	0.190970	-0.456597
N6	N	0.086820	0.930310	0.303410	-0.456013
N7	N	0.062240	0.455610	0.158510	-0.355931
N8	N	0.983650	0.690970	0.079930	-0.456597
N9	N	0.017130	0.803410	0.069690	-0.456013
N10	N	0.176360	0.044390	0.341490	-0.355931
N11	N	0.254550	0.809030	0.420070	-0.456597
N12	N	0.390230	0.696590	0.430310	-0.456013
N13	N	0.482150	0.341490	0.455610	-0.355931
N14	N	0.325380	0.420070	0.690970	-0.456597
N15	N	0.179460	0.430310	0.803410	-0.456013
N16	N	0.779250	0.158510	0.044390	-0.355931
N17	N	0.936420	0.079930	0.809030	-0.456597
N18	N	0.913180	0.069690	0.696590	-0.456013
N19	N	0.937760	0.544390	0.841490	-0.355931
N20	N	0.016350	0.309030	0.920070	-0.456597
N21	N	0.982870	0.196590	0.930310	-0.456013
N22	N	0.823640	0.955610	0.658510	-0.355931
N23	N	0.745450	0.190970	0.579930	-0.456597
N24	N	0.609770	0.303410	0.569690	-0.456013
O1	O	0.529670	0.530130	0.323470	-0.592278
O2	O	0.782700	0.464460	0.069620	-0.532262
O3	O	0.917580	0.485190	0.043990	-0.625228
O4	O	0.615400	0.482700	0.190620	-0.484549
O5	O	0.883270	0.969870	0.176530	-0.592278
O6	O	0.816780	0.035540	0.430380	-0.532262
O7	O	0.946760	0.014810	0.456010	-0.625228
O8	O	0.788720	0.017300	0.309380	-0.484549
O9	O	0.853140	0.676530	0.030130	-0.592278
O10	O	0.852320	0.930380	0.964460	-0.532262
O11	O	0.961570	0.956010	0.985190	-0.625228
O12	O	0.806020	0.809380	0.982700	-0.484549
O13	O	0.059800	0.823470	0.469870	-0.592278
O14	O	0.247160	0.569620	0.535540	-0.532262
O15	O	0.402770	0.543990	0.514810	-0.625228
O16	O	0.098100	0.690620	0.517300	-0.484549
O17	O	0.470330	0.469870	0.676530	-0.592278
O18	O	0.217300	0.535540	0.930380	-0.532262
O19	O	0.082420	0.514810	0.956010	-0.625228
O20	O	0.384600	0.517300	0.809380	-0.484549
O21	O	0.116730	0.030130	0.823470	-0.592278
O22	O	0.183220	0.964460	0.569620	-0.532262
O23	O	0.053240	0.985190	0.543990	-0.625228
O24	O	0.211280	0.982700	0.690620	-0.484549
O25	O	0.146860	0.323470	0.969870	-0.592278
O26	O	0.147680	0.069620	0.035540	-0.532262
O27	O	0.038430	0.043990	0.014810	-0.625228
O28	O	0.193980	0.190620	0.017300	-0.484549
O29	O	0.940200	0.176530	0.530130	-0.592278
O30	O	0.752840	0.430380	0.464460	-0.532262
O31	O	0.597230	0.456010	0.485190	-0.625228
O32	O	0.901900	0.309380	0.482700	-0.484549
