data_OKINIG_clean_PM
_symmetry_space_group_name_H-M	'P1'
_cell_length_a	9.477800
_cell_length_b	9.953800
_cell_length_c	17.692000
_cell_angle_alpha	90.000000
_cell_angle_beta	90.000000
_cell_angle_gamma	104.418997
_symmetry_Int_Tables_number 1

loop_
_symmetry_equiv_pos_as_xyz
'x,y,z'

loop_
_atom_site_label
_atom_site_type_symbol
_atom_site_fract_x
_atom_site_fract_y
_atom_site_fract_z
_atom_site_charge
Li1	Li	0.780300	0.949100	0.740900	0.860571
Li2	Li	0.870800	0.807000	0.861900	0.860762
Li3	Li	0.972900	0.553600	0.592700	0.902439
Li4	Li	0.972800	0.047800	0.519800	0.901931
Li5	Li	0.137800	0.344200	0.540700	0.887439
Li6	Li	0.133200	0.829300	0.516800	0.914793
Li7	Li	0.134700	0.703800	0.757500	0.939158
Li8	Li	0.219700	0.050900	0.240900	0.860571
Li9	Li	0.129200	0.193000	0.361900	0.860762
Li10	Li	0.027100	0.446400	0.092700	0.902439
Li11	Li	0.027200	0.952200	0.019800	0.901931
Li12	Li	0.862200	0.655800	0.040700	0.887439
Li13	Li	0.866800	0.170700	0.016800	0.914793
Li14	Li	0.865300	0.296200	0.257500	0.939158
H1	H	0.829600	0.555600	0.911100	0.466297
H2	H	0.746200	0.652800	0.919600	0.466297
H3	H	0.701600	0.504000	0.661300	0.130465
H4	H	0.675300	0.582200	0.550500	0.128718
H5	H	0.550400	0.766600	0.532800	0.094736
H6	H	0.427000	0.528800	0.548500	0.128718
H7	H	0.459200	0.430200	0.652500	0.125342
H8	H	0.564600	0.571200	0.762500	0.094736
H9	H	0.546500	0.803000	0.758700	0.113386
H10	H	0.549900	0.906900	0.640200	0.113386
H11	H	0.543500	0.074400	0.957500	0.128718
H12	H	0.568300	0.983700	0.065600	0.128718
H13	H	0.446800	0.745100	0.085400	0.094736
H14	H	0.316200	0.920500	0.065400	0.128718
H15	H	0.305100	0.005400	0.954300	0.128718
H16	H	0.433000	0.926600	0.852000	0.094736
H17	H	0.445600	0.693300	0.860200	0.113386
H18	H	0.451000	0.599200	0.981000	0.113386
H19	H	0.170400	0.444400	0.411100	0.466297
H20	H	0.253800	0.347200	0.419600	0.466297
H21	H	0.298400	0.496000	0.161300	0.130465
H22	H	0.324700	0.417800	0.050500	0.128718
H23	H	0.449600	0.233400	0.032800	0.094736
H24	H	0.573000	0.471200	0.048500	0.128718
H25	H	0.540800	0.569800	0.152500	0.125342
H26	H	0.435400	0.428800	0.262500	0.094736
H27	H	0.453500	0.197000	0.258700	0.113386
H28	H	0.450100	0.093100	0.140200	0.113386
H29	H	0.456500	0.925600	0.457500	0.128718
H30	H	0.431700	0.016300	0.565600	0.128718
H31	H	0.553200	0.254900	0.585400	0.094736
H32	H	0.683800	0.079500	0.565400	0.128718
H33	H	0.694900	0.994600	0.454300	0.128718
H34	H	0.567000	0.073400	0.352000	0.094736
H35	H	0.554400	0.306700	0.360200	0.113386
H36	H	0.549000	0.400800	0.481000	0.113386
C1	C	0.702800	0.602200	0.667080	-0.174314
C2	C	0.691100	0.661100	0.585400	-0.162349
C3	C	0.553700	0.718800	0.580900	0.052092
C4	C	0.420100	0.593600	0.589200	-0.174634
C5	C	0.433900	0.517200	0.665000	-0.178833
C6	C	0.562500	0.608100	0.711300	0.054408
C7	C	0.842700	0.671100	0.709800	0.824434
C8	C	0.829300	0.765200	0.559700	0.813356
C9	C	0.274800	0.631200	0.578820	0.815900
C10	C	0.296600	0.481600	0.713900	0.737930
C11	C	0.552100	0.756200	0.713700	-0.087269
C12	C	0.551500	0.814500	0.646400	-0.087269
C13	C	0.566900	0.985500	0.947700	-0.176053
C14	C	0.576800	0.915700	0.026900	-0.169682
C15	C	0.443600	0.790000	0.036400	0.052092
C16	C	0.305300	0.843500	0.029600	-0.169682
C17	C	0.298200	0.906100	0.947900	-0.172733
C18	C	0.435600	0.893200	0.903900	0.052092
C19	C	0.708700	0.016900	0.903400	0.843896
C20	C	0.720000	0.877200	0.041000	0.814344
C21	C	0.167200	0.734400	0.052600	0.816084
C22	C	0.157700	0.844600	0.904900	0.828825
C23	C	0.443400	0.743800	0.904300	-0.087269
C24	C	0.446900	0.690500	0.972900	-0.087269
C25	C	0.297200	0.397800	0.167080	-0.174314
C26	C	0.308900	0.338900	0.085400	-0.162349
C27	C	0.446300	0.281200	0.080900	0.052092
C28	C	0.579900	0.406400	0.089200	-0.174634
C29	C	0.566100	0.482800	0.165000	-0.178833
C30	C	0.437500	0.391900	0.211300	0.054408
C31	C	0.157300	0.328900	0.209800	0.824434
C32	C	0.170700	0.234800	0.059700	0.813356
C33	C	0.725200	0.368800	0.078820	0.815900
C34	C	0.703400	0.518400	0.213900	0.737930
C35	C	0.447900	0.243800	0.213700	-0.087269
C36	C	0.448500	0.185500	0.146400	-0.087269
C37	C	0.433100	0.014500	0.447700	-0.176053
C38	C	0.423200	0.084300	0.526900	-0.169682
C39	C	0.556400	0.210000	0.536400	0.052092
C40	C	0.694700	0.156500	0.529600	-0.169682
C41	C	0.701800	0.093900	0.447900	-0.172733
C42	C	0.564400	0.106800	0.403900	0.052092
C43	C	0.291300	0.983100	0.403400	0.843896
C44	C	0.280000	0.122800	0.541000	0.814344
C45	C	0.832800	0.265600	0.552600	0.816084
C46	C	0.842300	0.155400	0.404900	0.828825
C47	C	0.556600	0.256200	0.404300	-0.087269
C48	C	0.553100	0.309500	0.472900	-0.087269
O1	O	0.846100	0.771300	0.752770	-0.994032
O2	O	0.950500	0.618700	0.699700	-0.890623
O3	O	0.935000	0.715000	0.537500	-0.886716
O4	O	0.835100	0.891100	0.559730	-0.732931
O5	O	0.163500	0.529900	0.573760	-0.896900
O6	O	0.270500	0.755400	0.573670	-0.727450
O7	O	0.244600	0.575200	0.739340	-0.758769
O8	O	0.246300	0.355400	0.730600	-0.551159
O9	O	0.739300	0.926600	0.861660	-0.980391
O10	O	0.793300	0.139200	0.911100	-0.734555
O11	O	0.836200	0.975400	0.038300	-0.886906
O12	O	0.719500	0.754500	0.056320	-0.742918
O13	O	0.170300	0.611800	0.062640	-0.732607
O14	O	0.052700	0.779100	0.061520	-0.897147
O15	O	0.143800	0.735500	0.867140	-0.747661
O16	O	0.057400	0.909100	0.910260	-0.899588
O17	O	0.837700	0.637000	0.921500	-0.978032
O18	O	0.153900	0.228700	0.252770	-0.994032
O19	O	0.049500	0.381300	0.199700	-0.890623
O20	O	0.065000	0.285000	0.037500	-0.886716
O21	O	0.164900	0.108900	0.059730	-0.732931
O22	O	0.836500	0.470100	0.073760	-0.896900
O23	O	0.729500	0.244600	0.073670	-0.727450
O24	O	0.755400	0.424800	0.239340	-0.758769
O25	O	0.753700	0.644600	0.230600	-0.551159
O26	O	0.260700	0.073400	0.361660	-0.980391
O27	O	0.206700	0.860800	0.411100	-0.734555
O28	O	0.163800	0.024600	0.538300	-0.886906
O29	O	0.280500	0.245500	0.556320	-0.742918
O30	O	0.829700	0.388200	0.562640	-0.732607
O31	O	0.947300	0.220900	0.561520	-0.897147
O32	O	0.856200	0.264500	0.367140	-0.747661
O33	O	0.942600	0.090900	0.410260	-0.899588
O34	O	0.162300	0.363000	0.421500	-0.978032
