data_OPAPUR_clean_PM
_symmetry_space_group_name_H-M	'P1'
_cell_length_a	9.450400
_cell_length_b	11.458000
_cell_length_c	14.579000
_cell_angle_alpha	69.860000
_cell_angle_beta	85.460000
_cell_angle_gamma	86.300000
_symmetry_Int_Tables_number 1

loop_
_symmetry_equiv_pos_as_xyz
'x,y,z'

loop_
_atom_site_label
_atom_site_type_symbol
_atom_site_fract_x
_atom_site_fract_y
_atom_site_fract_z
_atom_site_charge
Dy1	Dy	0.797220	0.954680	0.002600	2.254035
Dy2	Dy	0.202780	0.045320	0.997400	2.254035
H1	H	0.864600	0.368900	0.841100	0.148939
H2	H	0.970600	0.371500	0.752300	0.148939
H3	H	0.334000	0.384000	0.889000	0.302850
H4	H	0.274000	0.472000	0.806000	0.302850
H5	H	0.877500	0.943300	0.556300	0.100448
H6	H	0.871700	0.065400	0.464400	0.100448
H7	H	0.275900	0.345400	0.394100	0.302850
H8	H	0.261000	0.282700	0.321400	0.302850
H9	H	0.853700	0.099400	0.280900	0.146414
H10	H	0.814800	0.224800	0.197300	0.146414
H11	H	0.120500	0.533000	0.434300	0.100448
H12	H	0.112300	0.409700	0.525000	0.100448
H13	H	0.668500	0.044800	0.607700	0.302850
H14	H	0.625000	0.119000	0.672200	0.302850
H15	H	0.482800	0.837700	0.808600	0.146414
H16	H	0.633600	0.833100	0.757500	0.146414
H17	H	0.029300	0.481500	0.908800	0.100448
H18	H	0.079400	0.387500	0.008600	0.100448
H19	H	0.135400	0.631100	0.158900	0.148939
H20	H	0.029400	0.628500	0.247700	0.148939
H21	H	0.666000	0.616000	0.111000	0.302850
H22	H	0.726000	0.528000	0.194000	0.302850
H23	H	0.122500	0.056700	0.443700	0.100448
H24	H	0.128300	0.934600	0.535600	0.100448
H25	H	0.724100	0.654600	0.605900	0.302850
H26	H	0.739000	0.717300	0.678600	0.302850
H27	H	0.146300	0.900600	0.719100	0.146414
H28	H	0.185200	0.775200	0.802700	0.146414
H29	H	0.879500	0.467000	0.565700	0.100448
H30	H	0.887700	0.590300	0.475000	0.100448
H31	H	0.331500	0.955200	0.392300	0.302850
H32	H	0.375000	0.881000	0.327800	0.302850
H33	H	0.517200	0.162300	0.191400	0.146414
H34	H	0.366400	0.166900	0.242500	0.146414
H35	H	0.970700	0.518500	0.091200	0.100448
H36	H	0.920600	0.612500	0.991400	0.100448
C1	C	0.925200	0.097800	0.143200	0.815351
C2	C	0.885600	0.197200	0.680600	0.184659
C3	C	0.001400	0.217300	0.872400	0.801102
C4	C	0.909800	0.318300	0.804800	-0.290104
C5	C	0.927500	0.018000	0.519200	-0.188546
C6	C	0.983700	0.303600	0.315200	0.184659
C7	C	0.888100	0.160000	0.219700	-0.289733
C8	C	0.942200	0.093700	0.582800	0.261059
C9	C	0.995400	0.406600	0.414500	0.261059
C10	C	0.057000	0.470000	0.475500	-0.188546
C11	C	0.578300	0.801400	0.819300	-0.289733
C12	C	0.641100	0.848200	0.892200	0.815351
C13	C	0.402100	0.614800	0.911800	0.184659
C14	C	0.190300	0.545500	0.960400	0.261059
C15	C	0.059400	0.474700	0.972600	-0.188546
C16	C	0.074800	0.902200	0.856800	0.815351
C17	C	0.114400	0.802800	0.319400	0.184659
C18	C	0.998600	0.782700	0.127600	0.801102
C19	C	0.090200	0.681700	0.195200	-0.290104
C20	C	0.072500	0.982000	0.480800	-0.188546
C21	C	0.016300	0.696400	0.684800	0.184659
C22	C	0.111900	0.840000	0.780300	-0.289733
C23	C	0.057800	0.906300	0.417200	0.261059
C24	C	0.004600	0.593400	0.585500	0.261059
C25	C	0.943000	0.530000	0.524500	-0.188546
C26	C	0.421700	0.198600	0.180700	-0.289733
C27	C	0.358900	0.151800	0.107800	0.815351
C28	C	0.597900	0.385200	0.088200	0.184659
C29	C	0.809700	0.454500	0.039600	0.261059
C30	C	0.940600	0.525300	0.027400	-0.188546
S1	S	0.048830	0.225630	0.236460	0.011031
S2	S	0.568740	0.635210	0.849930	0.011031
S3	S	0.775050	0.263500	0.751910	0.017085
S4	S	0.951170	0.774370	0.763540	0.011031
S5	S	0.431260	0.364790	0.150070	0.011031
S6	S	0.224950	0.736500	0.248090	0.017085
N1	N	0.309700	0.532400	0.905420	0.160466
N2	N	0.207400	0.631900	0.997700	-0.327030
N3	N	0.076000	0.347200	0.361840	0.160466
N4	N	0.022000	0.204600	0.661600	-0.319038
N5	N	0.343800	0.674800	0.967500	-0.319038
N6	N	0.830100	0.128100	0.633170	0.160466
N7	N	0.338100	0.452600	0.850300	-0.604694
N8	N	0.223300	0.321800	0.358700	-0.604694
N9	N	0.058300	0.137200	0.598200	-0.327030
N10	N	0.862800	0.399400	0.402700	-0.327030
N11	N	0.854300	0.333400	0.337300	-0.319038
N12	N	0.689800	0.092800	0.638400	-0.604694
N13	N	0.690300	0.467600	0.094580	0.160466
N14	N	0.792600	0.368100	0.002300	-0.327030
N15	N	0.924000	0.652800	0.638160	0.160466
N16	N	0.978000	0.795400	0.338400	-0.319038
N17	N	0.656200	0.325200	0.032500	-0.319038
N18	N	0.169900	0.871900	0.366830	0.160466
N19	N	0.661900	0.547400	0.149700	-0.604694
N20	N	0.776700	0.678200	0.641300	-0.604694
N21	N	0.941700	0.862800	0.401800	-0.327030
N22	N	0.137200	0.600600	0.597300	-0.327030
N23	N	0.145700	0.666600	0.662700	-0.319038
N24	N	0.310200	0.907200	0.361600	-0.604694
O1	O	0.828000	0.042400	0.124700	-0.764711
O2	O	0.948900	0.115490	0.924670	-0.902586
O3	O	0.127600	0.238560	0.876720	-0.697941
O4	O	0.050600	0.107700	0.106900	-0.764711
O5	O	0.686700	0.777900	0.970490	-0.764711
O6	O	0.647300	0.965670	0.866530	-0.764711
O7	O	0.172000	0.957600	0.875300	-0.764711
O8	O	0.051100	0.884510	0.075330	-0.902586
O9	O	0.872400	0.761440	0.123280	-0.697941
O10	O	0.949400	0.892300	0.893100	-0.764711
O11	O	0.313300	0.222100	0.029510	-0.764711
O12	O	0.352700	0.034330	0.133470	-0.764711
