data_OPURIB01_clean_PM
_symmetry_space_group_name_H-M	'P1'
_cell_length_a	4.880000
_cell_length_b	13.110000
_cell_length_c	13.289900
_cell_angle_alpha	90.000000
_cell_angle_beta	100.578995
_cell_angle_gamma	90.000000
_symmetry_Int_Tables_number 1

loop_
_symmetry_equiv_pos_as_xyz
'x,y,z'

loop_
_atom_site_label
_atom_site_type_symbol
_atom_site_fract_x
_atom_site_fract_y
_atom_site_fract_z
_atom_site_charge
Ce1	Ce	0.977780	0.758800	0.212300	2.251722
Ce2	Ce	0.022220	0.258800	0.787700	2.251722
H1	H	0.938700	0.496300	0.660600	0.405541
H2	H	0.099500	0.794300	0.869700	0.110069
H3	H	0.692600	0.578800	0.949400	0.104298
H4	H	0.474300	0.661300	0.655100	0.110069
H5	H	0.969000	0.843400	0.691300	0.112475
H6	H	0.002800	0.753200	0.616300	0.112475
H7	H	0.405500	0.972400	0.728200	0.110069
H8	H	0.278000	0.785300	0.486400	0.110069
H9	H	0.822400	0.017800	0.497600	0.104298
H10	H	0.061300	0.996300	0.339400	0.405541
H11	H	0.900500	0.294300	0.130300	0.110069
H12	H	0.307400	0.078800	0.050600	0.104298
H13	H	0.525700	0.161300	0.344900	0.110069
H14	H	0.031000	0.343400	0.308700	0.112475
H15	H	0.997200	0.253200	0.383700	0.112475
H16	H	0.594500	0.472400	0.271800	0.110069
H17	H	0.722000	0.285300	0.513600	0.110069
H18	H	0.177600	0.517800	0.502400	0.104298
C1	C	0.235600	0.748700	0.850800	-0.093294
C2	C	0.397400	0.686800	0.926300	-0.139383
C3	C	0.584500	0.618500	0.899300	0.025752
C4	C	0.613500	0.608400	0.797900	-0.148385
C5	C	0.458000	0.670000	0.723200	-0.099034
C6	C	0.273900	0.746300	0.748900	0.066810
C7	C	0.103200	0.800700	0.665600	-0.211369
C8	C	0.309900	0.869300	0.613300	0.066810
C9	C	0.444300	0.953200	0.664900	-0.093294
C10	C	0.632700	0.007000	0.622200	-0.139383
C11	C	0.364300	0.841900	0.520600	-0.093294
C12	C	0.555200	0.901100	0.476500	-0.139383
C13	C	0.692600	0.981100	0.526100	0.027608
C14	C	0.611900	0.864400	0.377400	0.766582
C15	C	0.782100	0.094800	0.683200	0.766582
C16	C	0.802000	0.535500	0.766600	0.710989
C17	C	0.380900	0.699400	0.035300	0.766582
C18	C	0.764400	0.248700	0.149200	-0.093294
C19	C	0.602600	0.186800	0.073700	-0.139383
C20	C	0.415500	0.118500	0.100700	0.025752
C21	C	0.386500	0.108400	0.202100	-0.148385
C22	C	0.542000	0.170000	0.276800	-0.099034
C23	C	0.726100	0.246300	0.251100	0.066810
C24	C	0.896800	0.300700	0.334400	-0.211369
C25	C	0.690100	0.369300	0.386700	0.066810
C26	C	0.555700	0.453200	0.335100	-0.093294
C27	C	0.367300	0.507000	0.377800	-0.139383
C28	C	0.635700	0.341900	0.479400	-0.093294
C29	C	0.444800	0.401100	0.523500	-0.139383
C30	C	0.307400	0.481100	0.473900	0.027608
C31	C	0.388100	0.364400	0.622600	0.766582
C32	C	0.217900	0.594800	0.316800	0.766582
C33	C	0.198000	0.035500	0.233400	0.710989
C34	C	0.619100	0.199400	0.964700	0.766582
O1	O	0.602700	0.668700	0.108400	-0.727632
O2	O	0.160900	0.753900	0.054700	-0.727632
O3	O	0.847900	0.545200	0.674700	-0.493459
O4	O	0.913000	0.460600	0.824000	-0.712732
O5	O	0.739700	0.114800	0.770300	-0.727632
O6	O	0.944400	0.148500	0.642200	-0.727632
O7	O	0.443400	0.808100	0.320500	-0.727632
O8	O	0.869500	0.887000	0.353300	-0.727632
O9	O	0.397300	0.168700	0.891600	-0.727632
O10	O	0.839100	0.253900	0.945300	-0.727632
O11	O	0.152100	0.045200	0.325300	-0.493459
O12	O	0.087000	0.960600	0.176000	-0.712732
O13	O	0.260300	0.614800	0.229700	-0.727632
O14	O	0.055600	0.648500	0.357800	-0.727632
O15	O	0.556600	0.308100	0.679500	-0.727632
O16	O	0.130500	0.387000	0.646700	-0.727632
