data_OQETEK_clean_PM
_symmetry_space_group_name_H-M	'P1'
_cell_length_a	14.333000
_cell_length_b	14.642000
_cell_length_c	14.642000
_cell_angle_alpha	90.000000
_cell_angle_beta	90.000000
_cell_angle_gamma	90.000000
_symmetry_Int_Tables_number 1

loop_
_symmetry_equiv_pos_as_xyz
'x,y,z'

loop_
_atom_site_label
_atom_site_type_symbol
_atom_site_fract_x
_atom_site_fract_y
_atom_site_fract_z
_atom_site_charge
Yb1	Yb	0.515060	0.366540	0.586410	1.431969
Yb2	Yb	0.015060	0.633460	0.413590	1.431969
Yb3	Yb	0.765060	0.413590	0.366540	1.431969
Yb4	Yb	0.265060	0.586410	0.633460	1.431969
H1	H	0.895700	0.481400	0.555400	0.110692
H2	H	0.008100	0.515000	0.803400	0.116072
H3	H	0.758400	0.390200	0.774700	0.116072
H4	H	0.825300	0.311000	0.905300	0.114330
H5	H	0.798800	0.302400	0.059800	0.109018
H6	H	0.881400	0.561800	0.092500	0.109018
H7	H	0.915800	0.567600	0.935300	0.114330
H8	H	0.395700	0.518600	0.444600	0.110692
H9	H	0.508100	0.485000	0.196600	0.116072
H10	H	0.258400	0.609800	0.225300	0.116072
H11	H	0.325300	0.689000	0.094700	0.114330
H12	H	0.298800	0.697600	0.940200	0.109018
H13	H	0.381400	0.438200	0.907500	0.109018
H14	H	0.415800	0.432400	0.064700	0.114330
H15	H	0.145700	0.444600	0.481400	0.110692
H16	H	0.258100	0.196600	0.515000	0.116072
H17	H	0.008400	0.225300	0.390200	0.116072
H18	H	0.075300	0.094700	0.311000	0.114330
H19	H	0.048800	0.940200	0.302400	0.109018
H20	H	0.131400	0.907500	0.561800	0.109018
H21	H	0.165800	0.064700	0.567600	0.114330
H22	H	0.645700	0.555400	0.518600	0.110692
H23	H	0.758100	0.803400	0.485000	0.116072
H24	H	0.508400	0.774700	0.609800	0.116072
H25	H	0.575300	0.905300	0.689000	0.114330
H26	H	0.548800	0.059800	0.697600	0.109018
H27	H	0.631400	0.092500	0.438200	0.109018
H28	H	0.665800	0.935300	0.432400	0.114330
C1	C	0.816200	0.428800	0.655300	-0.129903
C2	C	0.892600	0.471900	0.618100	0.028655
C3	C	0.965000	0.501100	0.673600	-0.129903
C4	C	0.960300	0.492500	0.766900	-0.049684
C5	C	0.882700	0.449500	0.807000	0.025543
C6	C	0.810500	0.418300	0.749400	-0.049684
C7	C	0.737500	0.399200	0.599100	0.714137
C8	C	0.050400	0.543700	0.630300	0.714137
C9	C	0.872800	0.440700	0.906500	0.066268
C10	C	0.837700	0.360900	0.942700	-0.128994
C11	C	0.821400	0.356400	0.034700	-0.014413
C12	C	0.837800	0.430600	0.091100	-0.115483
C13	C	0.871600	0.511200	0.055400	-0.014413
C14	C	0.890800	0.514800	0.960700	-0.128994
C15	C	0.812100	0.423900	0.189100	0.712797
C16	C	0.316200	0.571200	0.344700	-0.129903
C17	C	0.392600	0.528100	0.381900	0.028655
C18	C	0.465000	0.498900	0.326400	-0.129903
C19	C	0.460300	0.507500	0.233100	-0.049684
C20	C	0.382700	0.550500	0.193000	0.025543
C21	C	0.310500	0.581700	0.250600	-0.049684
C22	C	0.237500	0.600800	0.400900	0.714137
C23	C	0.550400	0.456300	0.369700	0.714137
C24	C	0.372800	0.559300	0.093500	0.066268
C25	C	0.337700	0.639100	0.057300	-0.128994
C26	C	0.321400	0.643600	0.965300	-0.014413
C27	C	0.337800	0.569400	0.908900	-0.115483
C28	C	0.371600	0.488800	0.944600	-0.014413
C29	C	0.390800	0.485200	0.039300	-0.128994
C30	C	0.312100	0.576100	0.810900	0.712797
C31	C	0.066200	0.344700	0.428800	-0.129903
C32	C	0.142600	0.381900	0.471900	0.028655
C33	C	0.215000	0.326400	0.501100	-0.129903
C34	C	0.210300	0.233100	0.492500	-0.049684
C35	C	0.132700	0.193000	0.449500	0.025543
C36	C	0.060500	0.250600	0.418300	-0.049684
C37	C	0.987500	0.400900	0.399200	0.714137
C38	C	0.300400	0.369700	0.543700	0.714137
C39	C	0.122800	0.093500	0.440700	0.066268
C40	C	0.087700	0.057300	0.360900	-0.128994
C41	C	0.071400	0.965300	0.356400	-0.014413
C42	C	0.087800	0.908900	0.430600	-0.115483
C43	C	0.121600	0.944600	0.511200	-0.014413
C44	C	0.140800	0.039300	0.514800	-0.128994
C45	C	0.062100	0.810900	0.423900	0.712797
C46	C	0.566200	0.655300	0.571200	-0.129903
C47	C	0.642600	0.618100	0.528100	0.028655
C48	C	0.715000	0.673600	0.498900	-0.129903
C49	C	0.710300	0.766900	0.507500	-0.049684
C50	C	0.632700	0.807000	0.550500	0.025543
C51	C	0.560500	0.749400	0.581700	-0.049684
C52	C	0.487500	0.599100	0.600800	0.714137
C53	C	0.800400	0.630300	0.456300	0.714137
C54	C	0.622800	0.906500	0.559300	0.066268
C55	C	0.587700	0.942700	0.639100	-0.128994
C56	C	0.571400	0.034700	0.643600	-0.014413
C57	C	0.587800	0.091100	0.569400	-0.115483
C58	C	0.621600	0.055400	0.488800	-0.014413
C59	C	0.640800	0.960700	0.485200	-0.128994
C60	C	0.562100	0.189100	0.576100	0.712797
O1	O	0.661600	0.385800	0.637700	-0.620262
O2	O	0.748600	0.391700	0.514300	-0.620262
O3	O	0.124000	0.540900	0.672700	-0.620262
O4	O	0.040100	0.578600	0.551800	-0.620262
O5	O	0.781700	0.350800	0.220300	-0.620262
O6	O	0.825900	0.491700	0.239300	-0.620262
O7	O	0.161600	0.614200	0.362300	-0.620262
O8	O	0.248600	0.608300	0.485700	-0.620262
O9	O	0.624000	0.459100	0.327300	-0.620262
O10	O	0.540100	0.421400	0.448200	-0.620262
O11	O	0.281700	0.649200	0.779700	-0.620262
O12	O	0.325900	0.508300	0.760700	-0.620262
O13	O	0.911600	0.362300	0.385800	-0.620262
O14	O	0.998600	0.485700	0.391700	-0.620262
O15	O	0.374000	0.327300	0.540900	-0.620262
O16	O	0.290100	0.448200	0.578600	-0.620262
O17	O	0.031700	0.779700	0.350800	-0.620262
O18	O	0.075900	0.760700	0.491700	-0.620262
O19	O	0.411600	0.637700	0.614200	-0.620262
O20	O	0.498600	0.514300	0.608300	-0.620262
O21	O	0.874000	0.672700	0.459100	-0.620262
O22	O	0.790100	0.551800	0.421400	-0.620262
O23	O	0.531700	0.220300	0.649200	-0.620262
O24	O	0.575900	0.239300	0.508300	-0.620262
