data_OTOROF_clean_PM
_symmetry_space_group_name_H-M	'P1'
_cell_length_a	8.531000
_cell_length_b	13.376000
_cell_length_c	13.631000
_cell_angle_alpha	90.000000
_cell_angle_beta	90.000000
_cell_angle_gamma	90.000000
_symmetry_Int_Tables_number 1

loop_
_symmetry_equiv_pos_as_xyz
'x,y,z'

loop_
_atom_site_label
_atom_site_type_symbol
_atom_site_fract_x
_atom_site_fract_y
_atom_site_fract_z
_atom_site_charge
Mn1	Mn	0.815010	0.750000	0.775400	1.221598
Mn2	Mn	0.315010	0.250000	0.724600	1.221598
Mn3	Mn	0.184990	0.250000	0.224600	1.221598
Mn4	Mn	0.684990	0.750000	0.275400	1.221598
Fe1	Fe	0.500000	0.000000	0.000000	-0.249293
Fe2	Fe	0.000000	0.000000	0.500000	-0.249293
Fe3	Fe	0.500000	0.500000	0.000000	-0.249293
Fe4	Fe	0.000000	0.500000	0.500000	-0.249293
C1	C	0.626700	0.915530	0.915460	0.313230
C2	C	0.686400	0.075430	0.030670	0.213845
C3	C	0.550900	0.914590	0.110440	0.313230
C4	C	0.126700	0.084470	0.584540	0.313230
C5	C	0.186400	0.924570	0.469330	0.213845
C6	C	0.050900	0.085410	0.389560	0.313230
C7	C	0.373300	0.415530	0.084540	0.313230
C8	C	0.313600	0.575430	0.969330	0.213845
C9	C	0.449100	0.414590	0.889560	0.313230
C10	C	0.873300	0.584470	0.415460	0.313230
C11	C	0.813600	0.424570	0.530670	0.213845
C12	C	0.949100	0.585410	0.610440	0.313230
C13	C	0.373300	0.084470	0.084540	0.313230
C14	C	0.313600	0.924570	0.969330	0.213845
C15	C	0.449100	0.085410	0.889560	0.313230
C16	C	0.873300	0.915530	0.415460	0.313230
C17	C	0.813600	0.075430	0.530670	0.213845
C18	C	0.949100	0.914590	0.610440	0.313230
C19	C	0.626700	0.584470	0.915460	0.313230
C20	C	0.686400	0.424570	0.030670	0.213845
C21	C	0.550900	0.585410	0.110440	0.313230
C22	C	0.126700	0.415530	0.584540	0.313230
C23	C	0.186400	0.575430	0.469330	0.213845
C24	C	0.050900	0.414590	0.389560	0.313230
N1	N	0.701600	0.865910	0.865510	-0.469697
N2	N	0.585400	0.864090	0.174370	-0.469697
N3	N	0.797300	0.117930	0.049230	-0.387064
N4	N	0.201600	0.134090	0.634490	-0.469697
N5	N	0.085400	0.135910	0.325630	-0.469697
N6	N	0.297300	0.882070	0.450770	-0.387064
N7	N	0.298400	0.365910	0.134490	-0.469697
N8	N	0.414600	0.364090	0.825630	-0.469697
N9	N	0.202700	0.617930	0.950770	-0.387064
N10	N	0.798400	0.634090	0.365510	-0.469697
N11	N	0.914600	0.635910	0.674370	-0.469697
N12	N	0.702700	0.382070	0.549230	-0.387064
N13	N	0.298400	0.134090	0.134490	-0.469697
N14	N	0.414600	0.135910	0.825630	-0.469697
N15	N	0.202700	0.882070	0.950770	-0.387064
N16	N	0.798400	0.865910	0.365510	-0.469697
N17	N	0.914600	0.864090	0.674370	-0.469697
N18	N	0.702700	0.117930	0.549230	-0.387064
N19	N	0.701600	0.634090	0.865510	-0.469697
N20	N	0.585400	0.635910	0.174370	-0.469697
N21	N	0.797300	0.382070	0.049230	-0.387064
N22	N	0.201600	0.365910	0.634490	-0.469697
N23	N	0.085400	0.364090	0.325630	-0.469697
N24	N	0.297300	0.617930	0.450770	-0.387064
