data_PAKXIK_clean_PM
_symmetry_space_group_name_H-M	'P1'
_cell_length_a	12.678399
_cell_length_b	13.543300
_cell_length_c	17.132200
_cell_angle_alpha	77.839000
_cell_angle_beta	76.404002
_cell_angle_gamma	80.614002
_symmetry_Int_Tables_number 1

loop_
_symmetry_equiv_pos_as_xyz
'x,y,z'

loop_
_atom_site_label
_atom_site_type_symbol
_atom_site_fract_x
_atom_site_fract_y
_atom_site_fract_z
_atom_site_charge
Cd1	Cd	0.478320	0.527570	0.738990	1.169486
Cd2	Cd	0.720660	0.245980	0.241180	1.145294
Cd3	Cd	0.719250	0.300590	0.749050	1.117173
Cd4	Cd	0.521680	0.472430	0.261010	1.169486
Cd5	Cd	0.279340	0.754020	0.758820	1.145294
Cd6	Cd	0.280750	0.699410	0.250950	1.117173
H1	H	0.800800	0.679600	0.657800	0.101458
H2	H	0.954400	0.748600	0.657800	0.101557
H3	H	0.976200	0.567100	0.872300	0.107720
H4	H	0.721500	0.549200	0.971500	0.107720
H5	H	0.725500	0.252700	0.069600	0.101557
H6	H	0.846100	0.213500	0.953200	0.101600
H7	H	0.525800	0.707400	0.450200	0.107720
H8	H	0.165500	0.850900	0.472900	0.101600
H9	H	0.221800	0.748300	0.584300	0.101557
H10	H	0.305000	0.021300	0.413800	0.111349
H11	H	0.320000	0.116800	0.344100	0.111349
H12	H	0.203100	0.098000	0.395900	0.111349
H13	H	0.144300	0.085600	0.254500	0.111349
H14	H	0.257600	0.128000	0.223800	0.111349
H15	H	0.239900	0.028300	0.198300	0.111349
H16	H	0.675400	0.773600	0.153200	0.101458
H17	H	0.717100	0.937100	0.136400	0.101557
H18	H	0.500000	0.976200	0.341400	0.107720
H19	H	0.073400	0.324500	0.687600	0.111349
H20	H	0.174600	0.334200	0.722200	0.111349
H21	H	0.126300	0.230200	0.741800	0.111349
H22	H	0.134400	0.295700	0.887400	0.111349
H23	H	0.132200	0.409800	0.843600	0.111349
H24	H	0.033600	0.374700	0.913000	0.111349
H25	H	0.199200	0.320400	0.342200	0.101458
H26	H	0.045600	0.251400	0.342200	0.101557
H27	H	0.023800	0.432900	0.127700	0.107720
H28	H	0.278500	0.450800	0.028500	0.107720
H29	H	0.274500	0.747300	0.930400	0.101557
H30	H	0.153900	0.786500	0.046800	0.101600
H31	H	0.474200	0.292600	0.549800	0.107720
H32	H	0.834500	0.149100	0.527100	0.101600
H33	H	0.778200	0.251700	0.415700	0.101557
H34	H	0.695000	0.978700	0.586200	0.111349
H35	H	0.680000	0.883200	0.655900	0.111349
H36	H	0.796900	0.902000	0.604100	0.111349
H37	H	0.855700	0.914400	0.745500	0.111349
H38	H	0.742400	0.872000	0.776200	0.111349
H39	H	0.760100	0.971700	0.801700	0.111349
H40	H	0.324600	0.226400	0.846800	0.101458
H41	H	0.282900	0.062900	0.863600	0.101557
H42	H	0.500000	0.023800	0.658600	0.107720
H43	H	0.926600	0.675500	0.312400	0.111349
H44	H	0.825400	0.665800	0.277800	0.111349
H45	H	0.873700	0.769800	0.258200	0.111349
H46	H	0.865600	0.704300	0.112600	0.111349
H47	H	0.867800	0.590200	0.156400	0.111349
H48	H	0.966400	0.625300	0.087000	0.111349
C1	C	0.694800	0.539100	0.759600	0.700812
C2	C	0.797700	0.579200	0.762300	-0.144388
C3	C	0.837000	0.655900	0.700700	-0.070011
C4	C	0.928200	0.698400	0.700900	-0.066080
C5	C	0.981200	0.665400	0.766400	-0.125170
C6	C	0.941300	0.588700	0.828600	-0.087460
C7	C	0.851900	0.543200	0.828100	0.043451
C8	C	0.082700	0.707700	0.767700	0.666390
C9	C	0.816800	0.458800	0.896700	0.043488
C10	C	0.746400	0.481600	0.967500	-0.085280
C11	C	0.712100	0.404800	0.033200	-0.122343
C12	C	0.748900	0.304500	0.026900	-0.062327
C13	C	0.820700	0.281000	0.957000	-0.073669
C14	C	0.855000	0.358100	0.892600	-0.132350
C15	C	0.634900	0.432000	0.108300	0.660459
C16	C	0.930300	0.326700	0.817300	0.433220
C17	C	0.416900	0.645000	0.599100	0.692846
C18	C	0.379700	0.715100	0.527700	-0.139282
C19	C	0.453800	0.737400	0.454600	-0.081319
C20	C	0.423400	0.803000	0.388100	0.043488
C21	C	0.312400	0.845400	0.395200	-0.132350
C22	C	0.238300	0.823100	0.468600	-0.073669
C23	C	0.271400	0.760500	0.534800	-0.058733
C24	C	0.273000	0.906800	0.322600	0.433220
C25	C	0.272900	0.065800	0.371800	-0.152987
C26	C	0.222000	0.067400	0.241300	-0.152987
C27	C	0.544500	0.666900	0.267700	0.723857
C28	C	0.561300	0.776500	0.257500	-0.162386
C29	C	0.640000	0.814300	0.191300	-0.063558
C30	C	0.666000	0.911700	0.181800	-0.066080
C31	C	0.616600	0.971300	0.239200	-0.125170
C32	C	0.535600	0.934600	0.304000	-0.087460
C33	C	0.506700	0.838000	0.314200	0.047673
C34	C	0.655000	0.071900	0.235200	0.666390
C35	C	0.108800	0.302800	0.733200	-0.152987
C36	C	0.088600	0.355200	0.868100	-0.152987
C37	C	0.305200	0.460900	0.240400	0.700812
C38	C	0.202300	0.420800	0.237700	-0.144388
C39	C	0.163000	0.344100	0.299300	-0.070011
C40	C	0.071800	0.301600	0.299100	-0.066080
C41	C	0.018800	0.334600	0.233600	-0.125170
C42	C	0.058700	0.411300	0.171400	-0.087460
C43	C	0.148100	0.456800	0.171900	0.043451
C44	C	0.917300	0.292300	0.232300	0.666390
C45	C	0.183200	0.541200	0.103300	0.043488
C46	C	0.253600	0.518400	0.032500	-0.085280
C47	C	0.287900	0.595200	0.966800	-0.122343
C48	C	0.251100	0.695500	0.973100	-0.062327
C49	C	0.179300	0.719000	0.043000	-0.073669
C50	C	0.145000	0.641900	0.107400	-0.132350
C51	C	0.365100	0.568000	0.891700	0.660459
C52	C	0.069700	0.673300	0.182700	0.433220
C53	C	0.583100	0.355000	0.400900	0.692846
C54	C	0.620300	0.284900	0.472300	-0.139282
C55	C	0.546200	0.262600	0.545400	-0.081319
C56	C	0.576600	0.197000	0.611900	0.043488
C57	C	0.687600	0.154600	0.604800	-0.132350
C58	C	0.761700	0.176900	0.531400	-0.073669
C59	C	0.728600	0.239500	0.465200	-0.058733
C60	C	0.727000	0.093200	0.677400	0.433220
C61	C	0.727100	0.934200	0.628200	-0.152987
C62	C	0.778000	0.932600	0.758700	-0.152987
C63	C	0.455500	0.333100	0.732300	0.723857
C64	C	0.438700	0.223500	0.742500	-0.162386
C65	C	0.360000	0.185700	0.808700	-0.063558
C66	C	0.334000	0.088300	0.818200	-0.066080
C67	C	0.383400	0.028700	0.760800	-0.125170
C68	C	0.464400	0.065400	0.696000	-0.087460
C69	C	0.493300	0.162000	0.685800	0.047673
C70	C	0.345000	0.928100	0.764800	0.666390
C71	C	0.891200	0.697200	0.266800	-0.152987
C72	C	0.911400	0.644800	0.131900	-0.152987
N1	N	0.035300	0.332700	0.806600	-0.044779
N2	N	0.258600	0.006900	0.313400	-0.044779
N3	N	0.964700	0.667300	0.193400	-0.044779
N4	N	0.741400	0.993100	0.686600	-0.044779
O1	O	0.893200	0.294000	0.768000	-0.540211
O2	O	0.675300	0.451900	0.796500	-0.624015
O3	O	0.632000	0.598000	0.719000	-0.619951
O4	O	0.615100	0.119200	0.295000	-0.607103
O5	O	0.727900	0.104400	0.177200	-0.607103
O6	O	0.502400	0.586100	0.588900	-0.584089
O7	O	0.357600	0.647500	0.670200	-0.654152
O8	O	0.595500	0.520000	0.111700	-0.555968
O9	O	0.612500	0.360100	0.169800	-0.683954
O10	O	0.114600	0.781100	0.713700	-0.607103
O11	O	0.133800	0.665700	0.822500	-0.607103
O12	O	0.447800	0.642500	0.286400	-0.680625
O13	O	0.624900	0.603100	0.257000	-0.594473
O14	O	0.253700	0.863400	0.271000	-0.540211
O15	O	0.106800	0.706000	0.232000	-0.540211
O16	O	0.324700	0.548100	0.203500	-0.624015
O17	O	0.368000	0.402000	0.281000	-0.619951
O18	O	0.384900	0.880800	0.705000	-0.607103
O19	O	0.272100	0.895600	0.822800	-0.607103
O20	O	0.497600	0.413900	0.411100	-0.584089
O21	O	0.642400	0.352500	0.329800	-0.654152
O22	O	0.404500	0.480000	0.888300	-0.555968
O23	O	0.387500	0.639900	0.830200	-0.683954
O24	O	0.885400	0.218900	0.286300	-0.607103
O25	O	0.866200	0.334300	0.177500	-0.607103
O26	O	0.552200	0.357500	0.713600	-0.680625
O27	O	0.375100	0.396900	0.743000	-0.594473
O28	O	0.746300	0.136600	0.729000	-0.540211
