data_PASMUT_clean_PM
_symmetry_space_group_name_H-M	'P1'
_cell_length_a	11.811300
_cell_length_b	13.847900
_cell_length_c	16.334400
_cell_angle_alpha	90.000000
_cell_angle_beta	90.000000
_cell_angle_gamma	112.851000
_symmetry_Int_Tables_number 1

loop_
_symmetry_equiv_pos_as_xyz
'x,y,z'

loop_
_atom_site_label
_atom_site_type_symbol
_atom_site_fract_x
_atom_site_fract_y
_atom_site_fract_z
_atom_site_charge
Zn1	Zn	0.603310	0.599780	0.452620	0.886707
Zn2	Zn	0.744540	0.283450	0.454910	1.104803
Zn3	Zn	0.948120	0.872760	0.631310	1.079782
Zn4	Zn	0.896690	0.900220	0.952620	0.886707
Zn5	Zn	0.755460	0.216550	0.954910	1.104803
Zn6	Zn	0.551880	0.627240	0.131310	1.079782
Zn7	Zn	0.396690	0.400220	0.547380	0.886707
Zn8	Zn	0.255460	0.716550	0.545090	1.104803
Zn9	Zn	0.051880	0.127240	0.368690	1.079782
Zn10	Zn	0.103310	0.099780	0.047380	0.886707
Zn11	Zn	0.244540	0.783450	0.045090	1.104803
Zn12	Zn	0.448120	0.372760	0.868690	1.079782
H1	H	0.896600	0.461000	0.580700	0.119268
H2	H	0.833200	0.394600	0.704800	0.118578
H3	H	0.666400	0.371500	0.774500	0.119268
H4	H	0.823800	0.519500	0.797400	0.118578
H5	H	0.881800	0.677300	0.743700	0.118578
H6	H	0.950800	0.562400	0.691600	0.119268
H7	H	0.603400	0.039000	0.080700	0.119268
H8	H	0.666800	0.105400	0.204800	0.118578
H9	H	0.833600	0.128500	0.274500	0.119268
H10	H	0.676200	0.980500	0.297400	0.118578
H11	H	0.618200	0.822700	0.243700	0.118578
H12	H	0.549200	0.937600	0.191600	0.119268
H13	H	0.103400	0.539000	0.419300	0.119268
H14	H	0.166800	0.605400	0.295200	0.118578
H15	H	0.333600	0.628500	0.225500	0.119268
H16	H	0.176200	0.480500	0.202600	0.118578
H17	H	0.118200	0.322700	0.256300	0.118578
H18	H	0.049200	0.437600	0.308400	0.119268
H19	H	0.396600	0.961000	0.919300	0.119268
H20	H	0.333200	0.894600	0.795200	0.118578
H21	H	0.166400	0.871500	0.725500	0.119268
H22	H	0.323800	0.019500	0.702600	0.118578
H23	H	0.381800	0.177300	0.756300	0.118578
H24	H	0.450800	0.062400	0.808400	0.119268
C1	C	0.756200	0.492800	0.533840	0.766986
C2	C	0.833100	0.481100	0.604990	-0.166888
C3	C	0.765900	0.395000	0.669840	-0.157240
C4	C	0.682900	0.422500	0.729890	-0.169790
C5	C	0.756300	0.530700	0.769680	-0.154747
C6	C	0.823600	0.621200	0.710270	-0.154747
C7	C	0.902400	0.584300	0.652540	-0.166910
C8	C	0.705800	0.281300	0.641100	0.714583
C9	C	0.557800	0.404800	0.693890	0.744108
C10	C	0.692900	0.563400	0.839400	0.690308
C11	C	0.735700	0.665900	0.673510	0.690308
C12	C	0.002900	0.668600	0.603680	0.758445
C13	C	0.743800	0.007200	0.033840	0.766986
C14	C	0.666900	0.018900	0.104990	-0.166888
C15	C	0.734100	0.105000	0.169840	-0.157240
C16	C	0.817100	0.077500	0.229890	-0.169790
C17	C	0.743700	0.969300	0.269680	-0.154747
C18	C	0.676400	0.878800	0.210270	-0.154747
C19	C	0.597600	0.915700	0.152540	-0.166910
C20	C	0.794200	0.218700	0.141100	0.714583
C21	C	0.942200	0.095200	0.193890	0.744108
C22	C	0.807100	0.936600	0.339400	0.690308
C23	C	0.764300	0.834100	0.173510	0.690308
C24	C	0.497100	0.831400	0.103680	0.758445
C25	C	0.243800	0.507200	0.466160	0.766986
C26	C	0.166900	0.518900	0.395010	-0.166888
C27	C	0.234100	0.605000	0.330160	-0.157240
C28	C	0.317100	0.577500	0.270110	-0.169790
C29	C	0.243700	0.469300	0.230320	-0.154747
C30	C	0.176400	0.378800	0.289730	-0.154747
C31	C	0.097600	0.415700	0.347460	-0.166910
C32	C	0.294200	0.718700	0.358900	0.714583
C33	C	0.442200	0.595200	0.306110	0.744108
C34	C	0.307100	0.436600	0.160600	0.690308
C35	C	0.264300	0.334100	0.326490	0.690308
C36	C	0.997100	0.331400	0.396320	0.758445
C37	C	0.256200	0.992800	0.966160	0.766986
C38	C	0.333100	0.981100	0.895010	-0.166888
C39	C	0.265900	0.895000	0.830160	-0.157240
C40	C	0.182900	0.922500	0.770110	-0.169790
C41	C	0.256300	0.030700	0.730320	-0.154747
C42	C	0.323600	0.121200	0.789730	-0.154747
C43	C	0.402400	0.084300	0.847460	-0.166910
C44	C	0.205800	0.781300	0.858900	0.714583
C45	C	0.057800	0.904800	0.806110	0.744108
C46	C	0.192900	0.063400	0.660600	0.690308
C47	C	0.235700	0.165900	0.826490	0.690308
C48	C	0.502900	0.168600	0.896320	0.758445
O1	O	0.734200	0.573920	0.528370	-0.616205
O2	O	0.722100	0.421380	0.478710	-0.628840
O3	O	0.744100	0.254000	0.576030	-0.640479
O4	O	0.630000	0.217720	0.687670	-0.551960
O5	O	0.542100	0.394530	0.617820	-0.615693
O6	O	0.470000	0.395030	0.743310	-0.597994
O7	O	0.617900	0.494920	0.885410	-0.599341
O8	O	0.728300	0.659290	0.853710	-0.549753
O9	O	0.622900	0.613980	0.682680	-0.549753
O10	O	0.777400	0.754870	0.639060	-0.599341
O11	O	0.026100	0.763620	0.614840	-0.599468
O12	O	0.068400	0.636230	0.559540	-0.630419
O13	O	0.765800	0.926080	0.028370	-0.616205
O14	O	0.777900	0.078620	0.978710	-0.628840
O15	O	0.755900	0.246000	0.076030	-0.640479
O16	O	0.870000	0.282280	0.187670	-0.551960
O17	O	0.957900	0.105470	0.117820	-0.615693
O18	O	0.030000	0.104970	0.243310	-0.597994
O19	O	0.882100	0.005080	0.385410	-0.599341
O20	O	0.771700	0.840710	0.353710	-0.549753
O21	O	0.877100	0.886020	0.182680	-0.549753
O22	O	0.722600	0.745130	0.139060	-0.599341
O23	O	0.473900	0.736380	0.114840	-0.599468
O24	O	0.431600	0.863770	0.059540	-0.630419
O25	O	0.265800	0.426080	0.471630	-0.616205
O26	O	0.277900	0.578620	0.521290	-0.628840
O27	O	0.255900	0.746000	0.423970	-0.640479
O28	O	0.370000	0.782280	0.312330	-0.551960
O29	O	0.457900	0.605470	0.382180	-0.615693
O30	O	0.530000	0.604970	0.256690	-0.597994
O31	O	0.382100	0.505080	0.114590	-0.599341
O32	O	0.271700	0.340710	0.146290	-0.549753
O33	O	0.377100	0.386020	0.317320	-0.549753
O34	O	0.222600	0.245130	0.360940	-0.599341
O35	O	0.973900	0.236380	0.385160	-0.599468
O36	O	0.931600	0.363770	0.440460	-0.630419
O37	O	0.234200	0.073920	0.971630	-0.616205
O38	O	0.222100	0.921380	0.021290	-0.628840
O39	O	0.244100	0.754000	0.923970	-0.640479
O40	O	0.130000	0.717720	0.812330	-0.551960
O41	O	0.042100	0.894530	0.882180	-0.615693
O42	O	0.970000	0.895030	0.756690	-0.597994
O43	O	0.117900	0.994920	0.614590	-0.599341
O44	O	0.228300	0.159290	0.646290	-0.549753
O45	O	0.122900	0.113980	0.817320	-0.549753
O46	O	0.277400	0.254870	0.860940	-0.599341
O47	O	0.526100	0.263620	0.885160	-0.599468
O48	O	0.568400	0.136230	0.940460	-0.630419
