data_PILWIS_clean_PM
_symmetry_space_group_name_H-M	'P1'
_cell_length_a	11.253500
_cell_length_b	11.253500
_cell_length_c	20.557000
_cell_angle_alpha	74.463298
_cell_angle_beta	74.463298
_cell_angle_gamma	79.526997
_symmetry_Int_Tables_number 1

loop_
_symmetry_equiv_pos_as_xyz
'x,y,z'

loop_
_atom_site_label
_atom_site_type_symbol
_atom_site_fract_x
_atom_site_fract_y
_atom_site_fract_z
_atom_site_charge
Cd1	Cd	0.257450	0.809360	0.667670	0.958970
Cd2	Cd	0.190640	0.742550	0.832330	0.958970
Cd3	Cd	0.742550	0.190640	0.332330	0.958970
Cd4	Cd	0.809360	0.257450	0.167670	0.958970
H1	H	0.399000	0.067400	0.416000	0.130963
H2	H	0.366200	0.940600	0.315800	0.102558
H3	H	0.674200	0.722800	0.664600	0.096914
H4	H	0.879600	0.736400	0.660600	0.096914
H5	H	0.600200	0.786000	0.405200	0.110222
H6	H	0.570900	0.918500	0.359200	0.110222
H7	H	0.268300	0.061100	0.532700	0.111339
H8	H	0.424500	0.644700	0.581700	0.148378
H9	H	0.542300	0.663500	0.520200	0.148378
H10	H	0.421200	0.631000	0.508300	0.148378
H11	H	0.558800	0.616600	0.372500	0.102558
H12	H	0.855500	0.912500	0.845400	0.100964
H13	H	0.473400	0.532000	0.306300	0.102030
H14	H	0.446700	0.884500	0.852500	0.100964
H15	H	0.701800	0.973600	0.928800	0.096015
H16	H	0.274500	0.857100	0.253600	0.102030
H17	H	0.494000	0.964400	0.932600	0.096015
H18	H	0.932600	0.601000	0.084000	0.130963
H19	H	0.059400	0.633800	0.184200	0.102558
H20	H	0.277200	0.325800	0.835400	0.096914
H21	H	0.263600	0.120400	0.839400	0.096914
H22	H	0.214000	0.399800	0.094800	0.110222
H23	H	0.081500	0.429100	0.140800	0.110222
H24	H	0.938900	0.731700	0.967300	0.111339
H25	H	0.355300	0.575500	0.918300	0.148378
H26	H	0.336500	0.457700	0.979800	0.148378
H27	H	0.369000	0.578800	0.991700	0.148378
H28	H	0.383400	0.441200	0.127500	0.102558
H29	H	0.087500	0.144500	0.654600	0.100964
H30	H	0.468000	0.526600	0.193700	0.102030
H31	H	0.115500	0.553300	0.647500	0.100964
H32	H	0.026400	0.298200	0.571200	0.096015
H33	H	0.142900	0.725500	0.246400	0.102030
H34	H	0.035600	0.506000	0.567400	0.096015
H35	H	0.601000	0.932600	0.584000	0.130963
H36	H	0.633800	0.059400	0.684200	0.102558
H37	H	0.325800	0.277200	0.335400	0.096914
H38	H	0.120400	0.263600	0.339400	0.096914
H39	H	0.399800	0.214000	0.594800	0.110222
H40	H	0.429100	0.081500	0.640800	0.110222
H41	H	0.731700	0.938900	0.467300	0.111339
H42	H	0.575500	0.355300	0.418300	0.148378
H43	H	0.457700	0.336500	0.479800	0.148378
H44	H	0.578800	0.369000	0.491700	0.148378
H45	H	0.441200	0.383400	0.627500	0.102558
H46	H	0.144500	0.087500	0.154600	0.100964
H47	H	0.526600	0.468000	0.693700	0.102030
H48	H	0.553300	0.115500	0.147500	0.100964
H49	H	0.298200	0.026400	0.071200	0.096015
H50	H	0.725500	0.142900	0.746400	0.102030
H51	H	0.506000	0.035600	0.067400	0.096015
H52	H	0.067400	0.399000	0.916000	0.130963
H53	H	0.940600	0.366200	0.815800	0.102558
H54	H	0.722800	0.674200	0.164600	0.096914
H55	H	0.736400	0.879600	0.160600	0.096914
H56	H	0.786000	0.600200	0.905200	0.110222
H57	H	0.918500	0.570900	0.859200	0.110222
H58	H	0.061100	0.268300	0.032700	0.111339
H59	H	0.644700	0.424500	0.081700	0.148378
H60	H	0.663500	0.542300	0.020200	0.148378
H61	H	0.631000	0.421200	0.008300	0.148378
H62	H	0.616600	0.558800	0.872500	0.102558
H63	H	0.912500	0.855500	0.345400	0.100964
H64	H	0.532000	0.473400	0.806300	0.102030
H65	H	0.884500	0.446700	0.352500	0.100964
H66	H	0.973600	0.701800	0.428800	0.096015
H67	H	0.857100	0.274500	0.753600	0.102030
H68	H	0.964400	0.494000	0.432600	0.096015
C1	C	0.597900	0.788100	0.749500	-0.142486
C2	C	0.845800	0.805200	0.744700	-0.142486
C3	C	0.389900	0.997500	0.452500	-0.168127
C4	C	0.751000	0.847000	0.797500	0.045965
C5	C	0.468100	0.771500	0.749900	0.663583
C6	C	0.982400	0.802200	0.741700	0.663583
C7	C	0.388600	0.857200	0.314700	-0.114270
C8	C	0.692400	0.752800	0.698400	-0.078465
C9	C	0.624400	0.838600	0.800000	0.045965
C10	C	0.408800	0.810000	0.513200	0.362929
C11	C	0.816700	0.761100	0.695800	-0.078465
C12	C	0.472100	0.790700	0.350100	0.039395
C13	C	0.366300	0.686300	0.271700	0.039607
C14	C	0.534000	0.846200	0.389800	-0.074523
C15	C	0.317200	0.993800	0.517000	0.039049
C16	C	0.453100	0.675300	0.532600	-0.429797
C17	C	0.502900	0.666500	0.347600	-0.114270
C18	C	0.774200	0.903000	0.847200	-0.127945
C19	C	0.450600	0.615000	0.307900	-0.111311
C20	C	0.529500	0.886700	0.851300	-0.127945
C21	C	0.682700	0.941900	0.896000	-0.081315
C22	C	0.333700	0.807500	0.276300	-0.111311
C23	C	0.557200	0.935600	0.898800	-0.081315
C24	C	0.211900	0.402100	0.750500	-0.142486
C25	C	0.194800	0.154200	0.755300	-0.142486
C26	C	0.002500	0.610100	0.047500	-0.168127
C27	C	0.153000	0.249000	0.702500	0.045965
C28	C	0.228500	0.531900	0.750100	0.663583
C29	C	0.197800	0.017600	0.758300	0.663583
C30	C	0.142800	0.611400	0.185300	-0.114270
C31	C	0.247200	0.307600	0.801600	-0.078465
C32	C	0.161400	0.375600	0.700000	0.045965
C33	C	0.190000	0.591200	0.986800	0.362929
C34	C	0.238900	0.183300	0.804200	-0.078465
C35	C	0.209300	0.527900	0.149900	0.039395
C36	C	0.313700	0.633700	0.228300	0.039607
C37	C	0.153800	0.466000	0.110200	-0.074523
C38	C	0.006200	0.682800	0.983000	0.039049
C39	C	0.324700	0.546900	0.967400	-0.429797
C40	C	0.333500	0.497100	0.152400	-0.114270
C41	C	0.097000	0.225800	0.652800	-0.127945
C42	C	0.385000	0.549400	0.192100	-0.111311
C43	C	0.113300	0.470500	0.648700	-0.127945
C44	C	0.058100	0.317300	0.604000	-0.081315
C45	C	0.192500	0.666300	0.223700	-0.111311
C46	C	0.064400	0.442800	0.601200	-0.081315
C47	C	0.402100	0.211900	0.250500	-0.142486
C48	C	0.154200	0.194800	0.255300	-0.142486
C49	C	0.610100	0.002500	0.547500	-0.168127
C50	C	0.249000	0.153000	0.202500	0.045965
C51	C	0.531900	0.228500	0.250100	0.663583
C52	C	0.017600	0.197800	0.258300	0.663583
C53	C	0.611400	0.142800	0.685300	-0.114270
C54	C	0.307600	0.247200	0.301600	-0.078465
C55	C	0.375600	0.161400	0.200000	0.045965
C56	C	0.591200	0.190000	0.486800	0.362929
C57	C	0.183300	0.238900	0.304200	-0.078465
C58	C	0.527900	0.209300	0.649900	0.039395
C59	C	0.633700	0.313700	0.728300	0.039607
C60	C	0.466000	0.153800	0.610200	-0.074523
C61	C	0.682800	0.006200	0.483000	0.039049
C62	C	0.546900	0.324700	0.467400	-0.429797
C63	C	0.497100	0.333500	0.652400	-0.114270
C64	C	0.225800	0.097000	0.152800	-0.127945
C65	C	0.549400	0.385000	0.692100	-0.111311
C66	C	0.470500	0.113300	0.148700	-0.127945
C67	C	0.317300	0.058100	0.104000	-0.081315
C68	C	0.666300	0.192500	0.723700	-0.111311
C69	C	0.442800	0.064400	0.101200	-0.081315
C70	C	0.788100	0.597900	0.249500	-0.142486
C71	C	0.805200	0.845800	0.244700	-0.142486
C72	C	0.997500	0.389900	0.952500	-0.168127
C73	C	0.847000	0.751000	0.297500	0.045965
C74	C	0.771500	0.468100	0.249900	0.663583
C75	C	0.802200	0.982400	0.241700	0.663583
C76	C	0.857200	0.388600	0.814700	-0.114270
C77	C	0.752800	0.692400	0.198400	-0.078465
C78	C	0.838600	0.624400	0.300000	0.045965
C79	C	0.810000	0.408800	0.013200	0.362929
C80	C	0.761100	0.816700	0.195800	-0.078465
C81	C	0.790700	0.472100	0.850100	0.039395
C82	C	0.686300	0.366300	0.771700	0.039607
C83	C	0.846200	0.534000	0.889800	-0.074523
C84	C	0.993800	0.317200	0.017000	0.039049
C85	C	0.675300	0.453100	0.032600	-0.429797
C86	C	0.666500	0.502900	0.847600	-0.114270
C87	C	0.903000	0.774200	0.347200	-0.127945
C88	C	0.615000	0.450600	0.807900	-0.111311
C89	C	0.886700	0.529500	0.351300	-0.127945
C90	C	0.941900	0.682700	0.396000	-0.081315
C91	C	0.807500	0.333700	0.776300	-0.111311
C92	C	0.935600	0.557200	0.398800	-0.081315
N1	N	0.328500	0.873100	0.555120	-0.421254
N2	N	0.446600	0.882600	0.450400	0.035084
N3	N	0.126900	0.671500	0.944880	-0.421254
N4	N	0.117400	0.553400	0.049600	0.035084
N5	N	0.671500	0.126900	0.444880	-0.421254
N6	N	0.553400	0.117400	0.549600	0.035084
N7	N	0.873100	0.328500	0.055120	-0.421254
N8	N	0.882600	0.446600	0.950400	0.035084
O1	O	0.395410	0.738010	0.807300	-0.598421
O2	O	0.443630	0.791230	0.691520	-0.598421
O3	O	0.013400	0.773000	0.798400	-0.598421
O4	O	0.053400	0.824800	0.682900	-0.598421
O5	O	0.261990	0.604590	0.692700	-0.598421
O6	O	0.208770	0.556370	0.808480	-0.598421
O7	O	0.227000	0.986600	0.701600	-0.598421
O8	O	0.175200	0.946600	0.817100	-0.598421
O9	O	0.604590	0.261990	0.192700	-0.598421
O10	O	0.556370	0.208770	0.308480	-0.598421
O11	O	0.986600	0.227000	0.201600	-0.598421
O12	O	0.946600	0.175200	0.317100	-0.598421
O13	O	0.738010	0.395410	0.307300	-0.598421
O14	O	0.791230	0.443630	0.191520	-0.598421
O15	O	0.773000	0.013400	0.298400	-0.598421
O16	O	0.824800	0.053400	0.182900	-0.598421
