data_PUSDIR_clean_PM
_symmetry_space_group_name_H-M	'P1'
_cell_length_a	14.013700
_cell_length_b	14.013699
_cell_length_c	26.041000
_cell_angle_alpha	79.249100
_cell_angle_beta	79.249101
_cell_angle_gamma	78.610702
_symmetry_Int_Tables_number 1

loop_
_symmetry_equiv_pos_as_xyz
'x,y,z'

loop_
_atom_site_label
_atom_site_type_symbol
_atom_site_fract_x
_atom_site_fract_y
_atom_site_fract_z
_atom_site_charge
Zn1	Zn	0.198340	0.883520	0.087430	0.947968
Zn2	Zn	0.428890	0.820330	0.068680	0.937321
Zn3	Zn	0.883520	0.198340	0.587430	0.947968
Zn4	Zn	0.820330	0.428890	0.568680	0.937321
Zn5	Zn	0.116480	0.801660	0.412570	0.947968
Zn6	Zn	0.179670	0.571110	0.431320	0.937321
Zn7	Zn	0.801660	0.116480	0.912570	0.947968
Zn8	Zn	0.571110	0.179670	0.931320	0.937321
H1	H	0.042600	0.158800	0.284500	0.104367
H2	H	0.757500	0.911900	0.995700	0.133310
H3	H	0.595800	0.903800	0.995600	0.087758
H4	H	0.362700	0.972300	0.234900	0.103525
H5	H	0.105400	0.030200	0.236600	0.103525
H6	H	0.422600	0.502200	0.112500	0.103525
H7	H	0.255200	0.266600	0.131700	0.104367
H8	H	0.855500	0.198700	0.421600	0.103525
H9	H	0.998800	0.193200	0.109500	0.103525
H10	H	0.292200	0.122600	0.096200	0.103525
H11	H	0.318300	0.112900	0.271900	0.104367
H12	H	0.390100	0.347300	0.153400	0.104367
H13	H	0.582300	0.731700	0.132200	0.087758
H14	H	0.921000	0.870400	0.992900	0.133310
H15	H	0.743600	0.733600	0.135400	0.133310
H16	H	0.181900	0.624700	0.201600	0.103525
H17	H	0.075900	0.883100	0.002200	0.086959
H18	H	0.946600	0.459000	0.401900	0.103525
H19	H	0.857700	0.806100	0.150100	0.133310
H20	H	0.017000	0.816000	0.154900	0.086959
H21	H	0.158800	0.471400	0.246700	0.104367
H22	H	0.935300	0.319900	0.156800	0.104367
H23	H	0.882500	0.201900	0.330300	0.104367
H24	H	0.978000	0.461200	0.311300	0.104367
H25	H	0.158800	0.042600	0.784500	0.104367
H26	H	0.911900	0.757500	0.495700	0.133310
H27	H	0.903800	0.595800	0.495600	0.087758
H28	H	0.972300	0.362700	0.734900	0.103525
H29	H	0.030200	0.105400	0.736600	0.103525
H30	H	0.502200	0.422600	0.612500	0.103525
H31	H	0.266600	0.255200	0.631700	0.104367
H32	H	0.198700	0.855500	0.921600	0.103525
H33	H	0.193200	0.998800	0.609500	0.103525
H34	H	0.122600	0.292200	0.596200	0.103525
H35	H	0.112900	0.318300	0.771900	0.104367
H36	H	0.347300	0.390100	0.653400	0.104367
H37	H	0.731700	0.582300	0.632200	0.087758
H38	H	0.870400	0.921000	0.492900	0.133310
H39	H	0.733600	0.743600	0.635400	0.133310
H40	H	0.624700	0.181900	0.701600	0.103525
H41	H	0.883100	0.075900	0.502200	0.086959
H42	H	0.459000	0.946600	0.901900	0.103525
H43	H	0.806100	0.857700	0.650100	0.133310
H44	H	0.816000	0.017000	0.654900	0.086959
H45	H	0.471400	0.158800	0.746700	0.104367
H46	H	0.319900	0.935300	0.656800	0.104367
H47	H	0.201900	0.882500	0.830300	0.104367
H48	H	0.461200	0.978000	0.811300	0.104367
H49	H	0.841200	0.957400	0.215500	0.104367
H50	H	0.088100	0.242500	0.504300	0.133310
H51	H	0.096200	0.404200	0.504400	0.087758
H52	H	0.027700	0.637300	0.265100	0.103525
H53	H	0.969800	0.894600	0.263400	0.103525
H54	H	0.497800	0.577400	0.387500	0.103525
H55	H	0.733400	0.744800	0.368300	0.104367
H56	H	0.801300	0.144500	0.078400	0.103525
H57	H	0.806800	0.001200	0.390500	0.103525
H58	H	0.877400	0.707800	0.403800	0.103525
H59	H	0.887100	0.681700	0.228100	0.104367
H60	H	0.652700	0.609900	0.346600	0.104367
H61	H	0.268300	0.417700	0.367800	0.087758
H62	H	0.129600	0.079000	0.507100	0.133310
H63	H	0.266400	0.256400	0.364600	0.133310
H64	H	0.375300	0.818100	0.298400	0.103525
H65	H	0.116900	0.924100	0.497800	0.086959
H66	H	0.541000	0.053400	0.098100	0.103525
H67	H	0.193900	0.142300	0.349900	0.133310
H68	H	0.184000	0.983000	0.345100	0.086959
H69	H	0.528600	0.841200	0.253300	0.104367
H70	H	0.680100	0.064700	0.343200	0.104367
H71	H	0.798100	0.117500	0.169700	0.104367
H72	H	0.538800	0.022000	0.188700	0.104367
H73	H	0.957400	0.841200	0.715500	0.104367
H74	H	0.242500	0.088100	0.004300	0.133310
H75	H	0.404200	0.096200	0.004400	0.087758
H76	H	0.637300	0.027700	0.765100	0.103525
H77	H	0.894600	0.969800	0.763400	0.103525
H78	H	0.577400	0.497800	0.887500	0.103525
H79	H	0.744800	0.733400	0.868300	0.104367
H80	H	0.144500	0.801300	0.578400	0.103525
H81	H	0.001200	0.806800	0.890500	0.103525
H82	H	0.707800	0.877400	0.903800	0.103525
H83	H	0.681700	0.887100	0.728100	0.104367
H84	H	0.609900	0.652700	0.846600	0.104367
H85	H	0.417700	0.268300	0.867800	0.087758
H86	H	0.079000	0.129600	0.007100	0.133310
H87	H	0.256400	0.266400	0.864600	0.133310
H88	H	0.818100	0.375300	0.798400	0.103525
H89	H	0.924100	0.116900	0.997800	0.086959
H90	H	0.053400	0.541000	0.598100	0.103525
H91	H	0.142300	0.193900	0.849900	0.133310
H92	H	0.983000	0.184000	0.845100	0.086959
H93	H	0.841200	0.528600	0.753300	0.104367
H94	H	0.064700	0.680100	0.843200	0.104367
H95	H	0.117500	0.798100	0.669700	0.104367
H96	H	0.022000	0.538800	0.688700	0.104367
C1	C	0.332560	0.032560	0.161850	-0.119505
C2	C	0.034450	0.166050	0.249250	-0.095106
C3	C	0.723040	0.875240	0.024000	-0.189539
C4	C	0.625980	0.870180	0.024260	0.185709
C5	C	0.364120	0.939320	0.138360	0.657703
C6	C	0.339950	0.031350	0.214450	-0.053579
C7	C	0.061570	0.100170	0.167860	-0.123544
C8	C	0.072460	0.089260	0.220470	-0.052662
C9	C	0.317850	0.678850	0.122660	0.678682
C10	C	0.367120	0.496320	0.137980	-0.052662
C11	C	0.275360	0.207360	0.152680	-0.095106
C12	C	0.878800	0.252000	0.399230	-0.052662
C13	C	0.983900	0.254300	0.225240	-0.061865
C14	C	0.874900	0.331100	0.478970	0.678682
C15	C	0.008600	0.186600	0.144480	-0.052662
C16	C	0.298830	0.121430	0.131150	-0.053579
C17	C	0.281700	0.205900	0.205730	-0.061865
C18	C	0.268800	0.393800	0.202320	-0.061865
C19	C	0.769040	0.825240	0.066300	0.098578
C20	C	0.314390	0.115190	0.236410	-0.095106
C21	C	0.348220	0.403420	0.163240	-0.095106
C22	C	0.617970	0.768770	0.104540	0.185709
C23	C	0.938900	0.858300	0.026500	-0.188692
C24	C	0.109850	0.020650	0.136140	0.661813
C25	C	0.872010	0.832810	0.070080	0.098578
C26	C	0.895900	0.329100	0.420450	-0.128787
C27	C	0.714610	0.769810	0.106840	-0.189539
C28	C	0.302820	0.579620	0.151160	-0.128787
C29	C	0.224600	0.569000	0.191900	-0.052662
C30	C	0.248000	0.295400	0.231740	0.362072
C31	C	0.032000	0.866000	0.032470	0.183005
C32	C	0.933900	0.407500	0.387520	-0.052662
C33	C	0.901700	0.819700	0.119300	-0.188692
C34	C	0.997100	0.827300	0.121910	0.183005
C35	C	0.952700	0.339900	0.252560	0.362072
C36	C	0.934300	0.331900	0.311130	-0.061865
C37	C	0.209300	0.477100	0.218200	-0.095106
C38	C	0.970600	0.262200	0.172820	-0.095106
C39	C	0.896200	0.253000	0.344480	-0.095106
C40	C	0.952700	0.408700	0.333310	-0.095106
C41	C	0.032560	0.332560	0.661850	-0.119505
C42	C	0.166050	0.034450	0.749250	-0.095106
C43	C	0.875240	0.723040	0.524000	-0.189539
C44	C	0.870180	0.625980	0.524260	0.185709
C45	C	0.939320	0.364120	0.638360	0.657703
C46	C	0.031350	0.339950	0.714450	-0.053579
C47	C	0.100170	0.061570	0.667860	-0.123544
C48	C	0.089260	0.072460	0.720470	-0.052662
C49	C	0.678850	0.317850	0.622660	0.678682
C50	C	0.496320	0.367120	0.637980	-0.052662
C51	C	0.207360	0.275360	0.652680	-0.095106
C52	C	0.252000	0.878800	0.899230	-0.052662
C53	C	0.254300	0.983900	0.725240	-0.061865
C54	C	0.331100	0.874900	0.978970	0.678682
C55	C	0.186600	0.008600	0.644480	-0.052662
C56	C	0.121430	0.298830	0.631150	-0.053579
C57	C	0.205900	0.281700	0.705730	-0.061865
C58	C	0.393800	0.268800	0.702320	-0.061865
C59	C	0.825240	0.769040	0.566300	0.098578
C60	C	0.115190	0.314390	0.736410	-0.095106
C61	C	0.403420	0.348220	0.663240	-0.095106
C62	C	0.768770	0.617970	0.604540	0.185709
C63	C	0.858300	0.938900	0.526500	-0.188692
C64	C	0.020650	0.109850	0.636140	0.661813
C65	C	0.832810	0.872010	0.570080	0.098578
C66	C	0.329100	0.895900	0.920450	-0.128787
C67	C	0.769810	0.714610	0.606840	-0.189539
C68	C	0.579620	0.302820	0.651160	-0.128787
C69	C	0.569000	0.224600	0.691900	-0.052662
C70	C	0.295400	0.248000	0.731740	0.362072
C71	C	0.866000	0.032000	0.532470	0.183005
C72	C	0.407500	0.933900	0.887520	-0.052662
C73	C	0.819700	0.901700	0.619300	-0.188692
C74	C	0.827300	0.997100	0.621910	0.183005
C75	C	0.339900	0.952700	0.752560	0.362072
C76	C	0.331900	0.934300	0.811130	-0.061865
C77	C	0.477100	0.209300	0.718200	-0.095106
C78	C	0.262200	0.970600	0.672820	-0.095106
C79	C	0.253000	0.896200	0.844480	-0.095106
C80	C	0.408700	0.952700	0.833310	-0.095106
C81	C	0.967440	0.667440	0.338150	-0.119505
C82	C	0.833950	0.965550	0.250750	-0.095106
C83	C	0.124760	0.276960	0.476000	-0.189539
C84	C	0.129820	0.374020	0.475740	0.185709
C85	C	0.060680	0.635880	0.361640	0.657703
C86	C	0.968650	0.660050	0.285550	-0.053579
C87	C	0.899830	0.938430	0.332140	-0.123544
C88	C	0.910740	0.927540	0.279530	-0.052662
C89	C	0.321150	0.682150	0.377340	0.678682
C90	C	0.503680	0.632880	0.362020	-0.052662
C91	C	0.792640	0.724640	0.347320	-0.095106
C92	C	0.748000	0.121200	0.100770	-0.052662
C93	C	0.745700	0.016100	0.274760	-0.061865
C94	C	0.668900	0.125100	0.021030	0.678682
C95	C	0.813400	0.991400	0.355520	-0.052662
C96	C	0.878570	0.701170	0.368850	-0.053579
C97	C	0.794100	0.718300	0.294270	-0.061865
C98	C	0.606200	0.731200	0.297680	-0.061865
C99	C	0.174760	0.230960	0.433700	0.098578
C100	C	0.884810	0.685610	0.263590	-0.095106
C101	C	0.596580	0.651780	0.336760	-0.095106
C102	C	0.231230	0.382030	0.395460	0.185709
C103	C	0.141700	0.061100	0.473500	-0.188692
C104	C	0.979350	0.890150	0.363860	0.661813
C105	C	0.167190	0.127990	0.429920	0.098578
C106	C	0.670900	0.104100	0.079550	-0.128787
C107	C	0.230190	0.285390	0.393160	-0.189539
C108	C	0.420380	0.697180	0.348840	-0.128787
C109	C	0.431000	0.775400	0.308100	-0.052662
C110	C	0.704600	0.752000	0.268260	0.362072
C111	C	0.134000	0.968000	0.467530	0.183005
C112	C	0.592500	0.066100	0.112480	-0.052662
C113	C	0.180300	0.098300	0.380700	-0.188692
C114	C	0.172700	0.002900	0.378090	0.183005
C115	C	0.660100	0.047300	0.247440	0.362072
C116	C	0.668100	0.065700	0.188870	-0.061865
C117	C	0.522900	0.790700	0.281800	-0.095106
C118	C	0.737800	0.029400	0.327180	-0.095106
C119	C	0.747000	0.103800	0.155520	-0.095106
C120	C	0.591300	0.047300	0.166690	-0.095106
C121	C	0.667440	0.967440	0.838150	-0.119505
C122	C	0.965550	0.833950	0.750750	-0.095106
C123	C	0.276960	0.124760	0.976000	-0.189539
C124	C	0.374020	0.129820	0.975740	0.185709
C125	C	0.635880	0.060680	0.861640	0.657703
C126	C	0.660050	0.968650	0.785550	-0.053579
C127	C	0.938430	0.899830	0.832140	-0.123544
C128	C	0.927540	0.910740	0.779530	-0.052662
C129	C	0.682150	0.321150	0.877340	0.678682
C130	C	0.632880	0.503680	0.862020	-0.052662
C131	C	0.724640	0.792640	0.847320	-0.095106
C132	C	0.121200	0.748000	0.600770	-0.052662
C133	C	0.016100	0.745700	0.774760	-0.061865
C134	C	0.125100	0.668900	0.521030	0.678682
C135	C	0.991400	0.813400	0.855520	-0.052662
C136	C	0.701170	0.878570	0.868850	-0.053579
C137	C	0.718300	0.794100	0.794270	-0.061865
C138	C	0.731200	0.606200	0.797680	-0.061865
C139	C	0.230960	0.174760	0.933700	0.098578
C140	C	0.685610	0.884810	0.763590	-0.095106
C141	C	0.651780	0.596580	0.836760	-0.095106
C142	C	0.382030	0.231230	0.895460	0.185709
C143	C	0.061100	0.141700	0.973500	-0.188692
C144	C	0.890150	0.979350	0.863860	0.661813
C145	C	0.127990	0.167190	0.929920	0.098578
C146	C	0.104100	0.670900	0.579550	-0.128787
C147	C	0.285390	0.230190	0.893160	-0.189539
C148	C	0.697180	0.420380	0.848840	-0.128787
C149	C	0.775400	0.431000	0.808100	-0.052662
C150	C	0.752000	0.704600	0.768260	0.362072
C151	C	0.968000	0.134000	0.967530	0.183005
C152	C	0.066100	0.592500	0.612480	-0.052662
C153	C	0.098300	0.180300	0.880700	-0.188692
C154	C	0.002900	0.172700	0.878090	0.183005
C155	C	0.047300	0.660100	0.747440	0.362072
C156	C	0.065700	0.668100	0.688870	-0.061865
C157	C	0.790700	0.522900	0.781800	-0.095106
C158	C	0.029400	0.737800	0.827180	-0.095106
C159	C	0.103800	0.747000	0.655520	-0.095106
C160	C	0.047300	0.591300	0.666690	-0.095106
N1	N	0.062870	0.850470	0.078450	-0.298093
N2	N	0.572680	0.818500	0.064420	-0.329604
N3	N	0.850470	0.062870	0.578450	-0.298093
N4	N	0.818500	0.572680	0.564420	-0.329604
N5	N	0.149530	0.937130	0.421550	-0.298093
N6	N	0.181500	0.427320	0.435580	-0.329604
N7	N	0.937130	0.149530	0.921550	-0.298093
N8	N	0.427320	0.181500	0.935580	-0.329604
O1	O	0.140320	0.935240	0.160050	-0.573392
O2	O	0.123840	0.039560	0.086200	-0.573392
O3	O	0.879760	0.249240	0.509460	-0.575954
O4	O	0.339510	0.939090	0.092010	-0.656678
O5	O	0.416320	0.867860	0.160120	-0.543801
O6	O	0.202300	0.288460	0.276730	-0.378228
O7	O	0.244330	0.747390	0.124880	-0.575954
O8	O	0.854630	0.414330	0.493210	-0.597430
O9	O	0.401990	0.688510	0.096950	-0.597430
O10	O	0.942100	0.423700	0.226360	-0.378228
O11	O	0.935240	0.140320	0.660050	-0.573392
O12	O	0.039560	0.123840	0.586200	-0.573392
O13	O	0.249240	0.879760	0.009460	-0.575954
O14	O	0.939090	0.339510	0.592010	-0.656678
O15	O	0.867860	0.416320	0.660120	-0.543801
O16	O	0.288460	0.202300	0.776730	-0.378228
O17	O	0.747390	0.244330	0.624880	-0.575954
O18	O	0.414330	0.854630	0.993210	-0.597430
O19	O	0.688510	0.401990	0.596950	-0.597430
O20	O	0.423700	0.942100	0.726360	-0.378228
O21	O	0.064760	0.859680	0.339950	-0.573392
O22	O	0.960440	0.876160	0.413800	-0.573392
O23	O	0.750760	0.120240	0.990540	-0.575954
O24	O	0.060910	0.660490	0.407990	-0.656678
O25	O	0.132140	0.583680	0.339880	-0.543801
O26	O	0.711540	0.797700	0.223270	-0.378228
O27	O	0.252610	0.755670	0.375120	-0.575954
O28	O	0.585670	0.145370	0.006790	-0.597430
O29	O	0.311490	0.598010	0.403050	-0.597430
O30	O	0.576300	0.057900	0.273640	-0.378228
O31	O	0.859680	0.064760	0.839950	-0.573392
O32	O	0.876160	0.960440	0.913800	-0.573392
O33	O	0.120240	0.750760	0.490540	-0.575954
O34	O	0.660490	0.060910	0.907990	-0.656678
O35	O	0.583680	0.132140	0.839880	-0.543801
O36	O	0.797700	0.711540	0.723270	-0.378228
O37	O	0.755670	0.252610	0.875120	-0.575954
O38	O	0.145370	0.585670	0.506790	-0.597430
O39	O	0.598010	0.311490	0.903050	-0.597430
O40	O	0.057900	0.576300	0.773640	-0.378228
