data_QAQRUW01_clean_PM
_symmetry_space_group_name_H-M	'P1'
_cell_length_a	11.743600
_cell_length_b	11.743600
_cell_length_c	20.979000
_cell_angle_alpha	97.332701
_cell_angle_beta	97.332701
_cell_angle_gamma	100.333000
_symmetry_Int_Tables_number 1

loop_
_symmetry_equiv_pos_as_xyz
'x,y,z'

loop_
_atom_site_label
_atom_site_type_symbol
_atom_site_fract_x
_atom_site_fract_y
_atom_site_fract_z
_atom_site_charge
Mg1	Mg	0.049880	0.540420	0.307680	1.598485
Mg2	Mg	0.459580	0.950120	0.192320	1.598485
Mg3	Mg	0.950120	0.459580	0.692320	1.598485
Mg4	Mg	0.540420	0.049880	0.807680	1.598485
Mg5	Mg	0.248150	0.751850	0.250000	1.497409
Mg6	Mg	0.751850	0.248150	0.750000	1.497409
H1	H	0.124400	0.023000	0.361000	0.101040
H2	H	0.079700	0.166500	0.433700	0.106150
H3	H	0.999500	0.776100	0.463300	0.108022
H4	H	0.501800	0.730800	0.414300	0.101040
H5	H	0.635400	0.706000	0.499300	0.106150
H6	H	0.304200	0.414800	0.417800	0.108022
H7	H	0.033900	0.310700	0.110000	0.101040
H8	H	0.989900	0.271700	0.998400	0.106150
H9	H	0.053900	0.656900	0.108700	0.108022
H10	H	0.977000	0.875600	0.139000	0.101040
H11	H	0.833500	0.920300	0.066300	0.106150
H12	H	0.223900	0.000500	0.036700	0.108022
H13	H	0.269200	0.498200	0.085700	0.101040
H14	H	0.294000	0.364600	0.000700	0.106150
H15	H	0.585200	0.695800	0.082200	0.108022
H16	H	0.689300	0.966100	0.390000	0.101040
H17	H	0.728300	0.010100	0.501600	0.106150
H18	H	0.343100	0.946100	0.391300	0.108022
H19	H	0.875600	0.977000	0.639000	0.101040
H20	H	0.920300	0.833500	0.566300	0.106150
H21	H	0.000500	0.223900	0.536700	0.108022
H22	H	0.498200	0.269200	0.585700	0.101040
H23	H	0.364600	0.294000	0.500700	0.106150
H24	H	0.695800	0.585200	0.582200	0.108022
H25	H	0.966100	0.689300	0.890000	0.101040
H26	H	0.010100	0.728300	0.001600	0.106150
H27	H	0.946100	0.343100	0.891300	0.108022
H28	H	0.023000	0.124400	0.861000	0.101040
H29	H	0.166500	0.079700	0.933700	0.106150
H30	H	0.776100	0.999500	0.963300	0.108022
H31	H	0.730800	0.501800	0.914300	0.101040
H32	H	0.706000	0.635400	0.999300	0.106150
H33	H	0.414800	0.304200	0.917800	0.108022
H34	H	0.310700	0.033900	0.610000	0.101040
H35	H	0.271700	0.989900	0.498400	0.106150
H36	H	0.656900	0.053900	0.608700	0.108022
C1	C	0.102400	0.795200	0.359800	0.767756
C2	C	0.068800	0.886600	0.406300	-0.128370
C3	C	0.090200	0.002000	0.397600	-0.026654
C4	C	0.063400	0.087200	0.440700	-0.142850
C5	C	0.012100	0.058900	0.495300	0.037904
C6	C	0.016700	0.856300	0.458200	-0.073548
C7	C	0.301900	0.590500	0.351800	0.767756
C8	C	0.390000	0.574000	0.406800	-0.128370
C9	C	0.488900	0.660500	0.432600	-0.026654
C10	C	0.567600	0.646600	0.483500	-0.142850
C11	C	0.549100	0.544700	0.512700	0.037904
C12	C	0.371800	0.473600	0.434600	-0.073548
C13	C	0.066600	0.509200	0.191300	0.768745
C14	C	0.047000	0.488200	0.119200	-0.143663
C15	C	0.028000	0.373400	0.086000	-0.025994
C16	C	0.001100	0.350100	0.019900	-0.142850
C17	C	0.989500	0.440900	0.983100	0.037904
C18	C	0.039600	0.579200	0.085800	-0.072474
C19	C	0.204800	0.897600	0.140200	0.767756
C20	C	0.113400	0.931200	0.093700	-0.128370
C21	C	0.998000	0.909800	0.102400	-0.026654
C22	C	0.912800	0.936600	0.059300	-0.142850
C23	C	0.941100	0.987900	0.004700	0.037904
C24	C	0.143700	0.983300	0.041800	-0.073548
C25	C	0.409500	0.698100	0.148200	0.767756
C26	C	0.426000	0.610000	0.093200	-0.128370
C27	C	0.339500	0.511100	0.067400	-0.026654
C28	C	0.353400	0.432400	0.016500	-0.142850
C29	C	0.455300	0.450900	0.987300	0.037904
C30	C	0.526400	0.628200	0.065400	-0.073548
C31	C	0.490800	0.933400	0.308700	0.768745
C32	C	0.511800	0.953000	0.380800	-0.143663
C33	C	0.626600	0.972000	0.414000	-0.025994
C34	C	0.649900	0.998900	0.480100	-0.142850
C35	C	0.559100	0.010500	0.516900	0.037904
C36	C	0.420800	0.960400	0.414200	-0.072474
C37	C	0.897600	0.204800	0.640200	0.767756
C38	C	0.931200	0.113400	0.593700	-0.128370
C39	C	0.909800	0.998000	0.602400	-0.026654
C40	C	0.936600	0.912800	0.559300	-0.142850
C41	C	0.987900	0.941100	0.504700	0.037904
C42	C	0.983300	0.143700	0.541800	-0.073548
C43	C	0.698100	0.409500	0.648200	0.767756
C44	C	0.610000	0.426000	0.593200	-0.128370
C45	C	0.511100	0.339500	0.567400	-0.026654
C46	C	0.432400	0.353400	0.516500	-0.142850
C47	C	0.450900	0.455300	0.487300	0.037904
C48	C	0.628200	0.526400	0.565400	-0.073548
C49	C	0.933400	0.490800	0.808700	0.768745
C50	C	0.953000	0.511800	0.880800	-0.143663
C51	C	0.972000	0.626600	0.914000	-0.025994
C52	C	0.998900	0.649900	0.980100	-0.142850
C53	C	0.010500	0.559100	0.016900	0.037904
C54	C	0.960400	0.420800	0.914200	-0.072474
C55	C	0.795200	0.102400	0.859800	0.767756
C56	C	0.886600	0.068800	0.906300	-0.128370
C57	C	0.002000	0.090200	0.897600	-0.026654
C58	C	0.087200	0.063400	0.940700	-0.142850
C59	C	0.058900	0.012100	0.995300	0.037904
C60	C	0.856300	0.016700	0.958200	-0.073548
C61	C	0.590500	0.301900	0.851800	0.767756
C62	C	0.574000	0.390000	0.906800	-0.128370
C63	C	0.660500	0.488900	0.932600	-0.026654
C64	C	0.646600	0.567600	0.983500	-0.142850
C65	C	0.544700	0.549100	0.012700	0.037904
C66	C	0.473600	0.371800	0.934600	-0.073548
C67	C	0.509200	0.066600	0.691300	0.768745
C68	C	0.488200	0.047000	0.619200	-0.143663
C69	C	0.373400	0.028000	0.586000	-0.025994
C70	C	0.350100	0.001100	0.519900	-0.142850
C71	C	0.440900	0.989500	0.483100	0.037904
C72	C	0.579200	0.039600	0.585800	-0.072474
O1	O	0.073700	0.689900	0.369200	-0.798188
O2	O	0.155300	0.828900	0.315440	-0.700042
O3	O	0.329100	0.674700	0.322340	-0.700042
O4	O	0.208100	0.514900	0.339830	-0.798188
O5	O	0.105000	0.611400	0.223070	-0.843023
O6	O	0.035300	0.423300	0.219840	-0.743487
O7	O	0.310100	0.926300	0.130800	-0.798188
O8	O	0.171100	0.844700	0.184560	-0.700042
O9	O	0.325300	0.670900	0.177660	-0.700042
O10	O	0.485100	0.791900	0.160170	-0.798188
O11	O	0.388600	0.895000	0.276930	-0.843023
O12	O	0.576700	0.964700	0.280160	-0.743487
O13	O	0.926300	0.310100	0.630800	-0.798188
O14	O	0.844700	0.171100	0.684560	-0.700042
O15	O	0.670900	0.325300	0.677660	-0.700042
O16	O	0.791900	0.485100	0.660170	-0.798188
O17	O	0.895000	0.388600	0.776930	-0.843023
O18	O	0.964700	0.576700	0.780160	-0.743487
O19	O	0.689900	0.073700	0.869200	-0.798188
O20	O	0.828900	0.155300	0.815440	-0.700042
O21	O	0.674700	0.329100	0.822340	-0.700042
O22	O	0.514900	0.208100	0.839830	-0.798188
O23	O	0.611400	0.105000	0.723070	-0.843023
O24	O	0.423300	0.035300	0.719840	-0.743487
