data_QIFLUO_clean_PM
_symmetry_space_group_name_H-M	'P1'
_cell_length_a	12.178600
_cell_length_b	13.825000
_cell_length_c	17.233000
_cell_angle_alpha	90.000000
_cell_angle_beta	92.482901
_cell_angle_gamma	90.000000
_symmetry_Int_Tables_number 1

loop_
_symmetry_equiv_pos_as_xyz
'x,y,z'

loop_
_atom_site_label
_atom_site_type_symbol
_atom_site_fract_x
_atom_site_fract_y
_atom_site_fract_z
_atom_site_charge
Zn1	Zn	0.439540	0.475150	0.901600	0.848002
Zn2	Zn	0.462970	0.902870	0.926770	0.848002
Zn3	Zn	0.060460	0.975150	0.098400	0.848002
Zn4	Zn	0.037030	0.402870	0.073230	0.848002
Zn5	Zn	0.560460	0.524850	0.098400	0.848002
Zn6	Zn	0.537030	0.097130	0.073230	0.848002
Zn7	Zn	0.939540	0.024850	0.901600	0.848002
Zn8	Zn	0.962970	0.597130	0.926770	0.848002
H1	H	0.470100	0.696600	0.849600	0.086203
H2	H	0.268400	0.387300	0.011200	0.086203
H3	H	0.536900	0.301100	0.699200	0.095849
H4	H	0.539300	0.235700	0.575600	0.128813
H5	H	0.357100	0.454500	0.494400	0.128813
H6	H	0.355900	0.518800	0.615000	0.095849
H7	H	0.237400	0.259800	0.456400	0.128813
H8	H	0.102900	0.291700	0.360700	0.095849
H9	H	0.336900	0.384600	0.220400	0.095849
H10	H	0.467400	0.355700	0.317000	0.128813
H11	H	0.264400	0.604700	0.809300	0.333872
H12	H	0.146600	0.631300	0.815200	0.333872
H13	H	0.532900	0.736500	0.134400	0.333872
H14	H	0.521100	0.830400	0.092400	0.333872
H15	H	0.029900	0.196600	0.150400	0.086203
H16	H	0.231600	0.887300	0.988800	0.086203
H17	H	0.963100	0.801100	0.300800	0.095849
H18	H	0.960700	0.735700	0.424400	0.128813
H19	H	0.142900	0.954500	0.505600	0.128813
H20	H	0.144100	0.018800	0.385000	0.095849
H21	H	0.262600	0.759800	0.543600	0.128813
H22	H	0.397100	0.791700	0.639300	0.095849
H23	H	0.163100	0.884600	0.779600	0.095849
H24	H	0.032600	0.855700	0.683000	0.128813
H25	H	0.235600	0.104700	0.190700	0.333872
H26	H	0.353400	0.131300	0.184800	0.333872
H27	H	0.967100	0.236500	0.865600	0.333872
H28	H	0.978900	0.330400	0.907600	0.333872
H29	H	0.529900	0.303400	0.150400	0.086203
H30	H	0.731600	0.612700	0.988800	0.086203
H31	H	0.463100	0.698900	0.300800	0.095849
H32	H	0.460700	0.764300	0.424400	0.128813
H33	H	0.642900	0.545500	0.505600	0.128813
H34	H	0.644100	0.481200	0.385000	0.095849
H35	H	0.762600	0.740200	0.543600	0.128813
H36	H	0.897100	0.708300	0.639300	0.095849
H37	H	0.663100	0.615400	0.779600	0.095849
H38	H	0.532600	0.644300	0.683000	0.128813
H39	H	0.735600	0.395300	0.190700	0.333872
H40	H	0.853400	0.368700	0.184800	0.333872
H41	H	0.467100	0.263500	0.865600	0.333872
H42	H	0.478900	0.169600	0.907600	0.333872
H43	H	0.970100	0.803400	0.849600	0.086203
H44	H	0.768400	0.112700	0.011200	0.086203
H45	H	0.036900	0.198900	0.699200	0.095849
H46	H	0.039300	0.264300	0.575600	0.128813
H47	H	0.857100	0.045500	0.494400	0.128813
H48	H	0.855900	0.981200	0.615000	0.095849
H49	H	0.737400	0.240200	0.456400	0.128813
H50	H	0.602900	0.208300	0.360700	0.095849
H51	H	0.836900	0.115400	0.220400	0.095849
H52	H	0.967400	0.144300	0.317000	0.128813
H53	H	0.764400	0.895300	0.809300	0.333872
H54	H	0.646600	0.868700	0.815200	0.333872
H55	H	0.032900	0.763500	0.134400	0.333872
H56	H	0.021100	0.669600	0.092400	0.333872
C1	C	0.482800	0.688900	0.902800	0.274509
C2	C	0.509100	0.719700	0.022700	0.657515
C3	C	0.194000	0.535400	0.889700	0.657515
C4	C	0.230700	0.431600	0.979300	0.274509
C5	C	0.441300	0.460000	0.751000	0.647079
C6	C	0.446000	0.417300	0.670500	-0.171542
C7	C	0.500000	0.332200	0.658000	0.016604
C8	C	0.500000	0.292100	0.584000	-0.237337
C9	C	0.442500	0.335200	0.523800	0.275879
C10	C	0.391900	0.422200	0.535800	-0.237337
C11	C	0.392700	0.460800	0.607600	0.016604
C12	C	0.364700	0.310000	0.396300	0.275879
C13	C	0.256100	0.287100	0.409500	-0.237337
C14	C	0.176000	0.305500	0.351800	0.016604
C15	C	0.203600	0.344800	0.279900	-0.171542
C16	C	0.315700	0.361500	0.268200	0.016604
C17	C	0.393800	0.344200	0.325900	-0.237337
C18	C	0.117300	0.365600	0.218600	0.647079
C19	C	0.017200	0.188900	0.097200	0.274509
C20	C	0.990900	0.219700	0.977300	0.657515
C21	C	0.306000	0.035400	0.110300	0.657515
C22	C	0.269300	0.931600	0.020700	0.274509
C23	C	0.058700	0.960000	0.249000	0.647079
C24	C	0.054000	0.917300	0.329500	-0.171542
C25	C	0.000000	0.832200	0.342000	0.016604
C26	C	0.000000	0.792100	0.416000	-0.237337
C27	C	0.057500	0.835200	0.476200	0.275879
C28	C	0.108100	0.922200	0.464200	-0.237337
C29	C	0.107300	0.960800	0.392400	0.016604
C30	C	0.135300	0.810000	0.603700	0.275879
C31	C	0.243900	0.787100	0.590500	-0.237337
C32	C	0.324000	0.805500	0.648200	0.016604
C33	C	0.296400	0.844800	0.720100	-0.171542
C34	C	0.184300	0.861500	0.731800	0.016604
C35	C	0.106200	0.844200	0.674100	-0.237337
C36	C	0.382700	0.865600	0.781400	0.647079
C37	C	0.517200	0.311100	0.097200	0.274509
C38	C	0.490900	0.280300	0.977300	0.657515
C39	C	0.806000	0.464600	0.110300	0.657515
C40	C	0.769300	0.568400	0.020700	0.274509
C41	C	0.558700	0.540000	0.249000	0.647079
C42	C	0.554000	0.582700	0.329500	-0.171542
C43	C	0.500000	0.667800	0.342000	0.016604
C44	C	0.500000	0.707900	0.416000	-0.237337
C45	C	0.557500	0.664800	0.476200	0.275879
C46	C	0.608100	0.577800	0.464200	-0.237337
C47	C	0.607300	0.539200	0.392400	0.016604
C48	C	0.635300	0.690000	0.603700	0.275879
C49	C	0.743900	0.712900	0.590500	-0.237337
C50	C	0.824000	0.694500	0.648200	0.016604
C51	C	0.796400	0.655200	0.720100	-0.171542
C52	C	0.684300	0.638500	0.731800	0.016604
C53	C	0.606200	0.655800	0.674100	-0.237337
C54	C	0.882700	0.634400	0.781400	0.647079
C55	C	0.982800	0.811100	0.902800	0.274509
C56	C	0.009100	0.780300	0.022700	0.657515
C57	C	0.694000	0.964600	0.889700	0.657515
C58	C	0.730700	0.068400	0.979300	0.274509
C59	C	0.941300	0.040000	0.751000	0.647079
C60	C	0.946000	0.082700	0.670500	-0.171542
C61	C	0.000000	0.167800	0.658000	0.016604
C62	C	0.000000	0.207900	0.584000	-0.237337
C63	C	0.942500	0.164800	0.523800	0.275879
C64	C	0.891900	0.077800	0.535800	-0.237337
C65	C	0.892700	0.039200	0.607600	0.016604
C66	C	0.864700	0.190000	0.396300	0.275879
C67	C	0.756100	0.212900	0.409500	-0.237337
C68	C	0.676000	0.194500	0.351800	0.016604
C69	C	0.703600	0.155200	0.279900	-0.171542
C70	C	0.815700	0.138500	0.268200	0.016604
C71	C	0.893800	0.155800	0.325900	-0.237337
C72	C	0.617300	0.134400	0.218600	0.647079
N1	N	0.277200	0.479200	0.919200	-0.537495
N2	N	0.100100	0.522400	0.928100	-0.405244
N3	N	0.127000	0.455200	0.987200	-0.267625
N4	N	0.202700	0.597900	0.831100	-0.731792
N5	N	0.510800	0.622900	0.017100	-0.405244
N6	N	0.491800	0.762700	0.952700	-0.537495
N7	N	0.494100	0.603500	0.937400	-0.267625
N8	N	0.522700	0.768200	0.091700	-0.731792
N9	N	0.222800	0.979200	0.080800	-0.537495
N10	N	0.399900	0.022400	0.071900	-0.405244
N11	N	0.373000	0.955200	0.012800	-0.267625
N12	N	0.297300	0.097900	0.168900	-0.731792
N13	N	0.989200	0.122900	0.982900	-0.405244
N14	N	0.008200	0.262700	0.047300	-0.537495
N15	N	0.005900	0.103500	0.062600	-0.267625
N16	N	0.977300	0.268200	0.908300	-0.731792
N17	N	0.722800	0.520800	0.080800	-0.537495
N18	N	0.899900	0.477600	0.071900	-0.405244
N19	N	0.873000	0.544800	0.012800	-0.267625
N20	N	0.797300	0.402100	0.168900	-0.731792
N21	N	0.489200	0.377100	0.982900	-0.405244
N22	N	0.508200	0.237300	0.047300	-0.537495
N23	N	0.505900	0.396500	0.062600	-0.267625
N24	N	0.477300	0.231800	0.908300	-0.731792
N25	N	0.777200	0.020800	0.919200	-0.537495
N26	N	0.600100	0.977600	0.928100	-0.405244
N27	N	0.627000	0.044800	0.987200	-0.267625
N28	N	0.702700	0.902100	0.831100	-0.731792
N29	N	0.010800	0.877100	0.017100	-0.405244
N30	N	0.991800	0.737300	0.952700	-0.537495
N31	N	0.994100	0.896500	0.937400	-0.267625
N32	N	0.022700	0.731800	0.091700	-0.731792
O1	O	0.446500	0.288700	0.452500	-0.254652
O2	O	0.019900	0.347200	0.228000	-0.606308
O3	O	0.153000	0.401200	0.153800	-0.617455
O4	O	0.403700	0.541300	0.761400	-0.606308
O5	O	0.481500	0.407600	0.806700	-0.617455
O6	O	0.053500	0.788700	0.547500	-0.254652
O7	O	0.480100	0.847200	0.772000	-0.606308
O8	O	0.347000	0.901200	0.846200	-0.617455
O9	O	0.096300	0.041300	0.238600	-0.606308
O10	O	0.018500	0.907600	0.193300	-0.617455
O11	O	0.553500	0.711300	0.547500	-0.254652
O12	O	0.980100	0.652800	0.772000	-0.606308
O13	O	0.847000	0.598800	0.846200	-0.617455
O14	O	0.596300	0.458700	0.238600	-0.606308
O15	O	0.518500	0.592400	0.193300	-0.617455
O16	O	0.946500	0.211300	0.452500	-0.254652
O17	O	0.519900	0.152800	0.228000	-0.606308
O18	O	0.653000	0.098800	0.153800	-0.617455
O19	O	0.903700	0.958700	0.761400	-0.606308
O20	O	0.981500	0.092400	0.806700	-0.617455
