data_QQQGTA01_clean_PM
_symmetry_space_group_name_H-M	'P1'
_cell_length_a	10.682300
_cell_length_b	10.682300
_cell_length_c	10.682300
_cell_angle_alpha	106.004001
_cell_angle_beta	106.004001
_cell_angle_gamma	106.003997
_symmetry_Int_Tables_number 1

loop_
_symmetry_equiv_pos_as_xyz
'x,y,z'

loop_
_atom_site_label
_atom_site_type_symbol
_atom_site_fract_x
_atom_site_fract_y
_atom_site_fract_z
_atom_site_charge
Cd1	Cd	0.250490	0.715450	0.984930	1.102588
Cd2	Cd	0.984930	0.250490	0.715450	1.102588
Cd3	Cd	0.715450	0.984930	0.250490	1.102588
Cd4	Cd	0.749510	0.284550	0.015070	1.102588
Cd5	Cd	0.015070	0.749510	0.284550	1.102588
Cd6	Cd	0.284550	0.015070	0.749510	1.102588
H1	H	0.856900	0.701500	0.629900	0.182440
H2	H	0.945400	0.886300	0.711800	0.182440
H3	H	0.629900	0.856900	0.701500	0.182440
H4	H	0.711800	0.945400	0.886300	0.182440
H5	H	0.701500	0.629900	0.856900	0.182440
H6	H	0.886300	0.711800	0.945400	0.182440
H7	H	0.143100	0.298500	0.370100	0.182440
H8	H	0.054600	0.113700	0.288200	0.182440
H9	H	0.370100	0.143100	0.298500	0.182440
H10	H	0.288200	0.054600	0.113700	0.182440
H11	H	0.298500	0.370100	0.143100	0.182440
H12	H	0.113700	0.288200	0.054600	0.182440
C1	C	0.065400	0.764400	0.782700	0.810499
C2	C	0.951700	0.775100	0.669700	-0.585171
C3	C	0.982900	0.775700	0.539200	0.810499
C4	C	0.782700	0.065400	0.764400	0.810499
C5	C	0.669700	0.951700	0.775100	-0.585171
C6	C	0.539200	0.982900	0.775700	0.810499
C7	C	0.764400	0.782700	0.065400	0.810499
C8	C	0.775100	0.669700	0.951700	-0.585171
C9	C	0.775700	0.539200	0.982900	0.810499
C10	C	0.934600	0.235600	0.217300	0.810499
C11	C	0.048300	0.224900	0.330300	-0.585171
C12	C	0.017100	0.224300	0.460800	0.810499
C13	C	0.217300	0.934600	0.235600	0.810499
C14	C	0.330300	0.048300	0.224900	-0.585171
C15	C	0.460800	0.017100	0.224300	0.810499
C16	C	0.235600	0.217300	0.934600	0.810499
C17	C	0.224900	0.330300	0.048300	-0.585171
C18	C	0.224300	0.460800	0.017100	0.810499
O1	O	0.189100	0.855300	0.835700	-0.625824
O2	O	0.033200	0.666700	0.823500	-0.625824
O3	O	0.134800	0.451600	0.907900	-0.625824
O4	O	0.317000	0.578600	0.105700	-0.625824
O5	O	0.835700	0.189100	0.855300	-0.625824
O6	O	0.823500	0.033200	0.666700	-0.625824
O7	O	0.907900	0.134800	0.451600	-0.625824
O8	O	0.105700	0.317000	0.578600	-0.625824
O9	O	0.855300	0.835700	0.189100	-0.625824
O10	O	0.666700	0.823500	0.033200	-0.625824
O11	O	0.451600	0.907900	0.134800	-0.625824
O12	O	0.578600	0.105700	0.317000	-0.625824
O13	O	0.810900	0.144700	0.164300	-0.625824
O14	O	0.966800	0.333300	0.176500	-0.625824
O15	O	0.865200	0.548400	0.092100	-0.625824
O16	O	0.683000	0.421400	0.894300	-0.625824
O17	O	0.164300	0.810900	0.144700	-0.625824
O18	O	0.176500	0.966800	0.333300	-0.625824
O19	O	0.092100	0.865200	0.548400	-0.625824
O20	O	0.894300	0.683000	0.421400	-0.625824
O21	O	0.144700	0.164300	0.810900	-0.625824
O22	O	0.333300	0.176500	0.966800	-0.625824
O23	O	0.548400	0.092100	0.865200	-0.625824
O24	O	0.421400	0.894300	0.683000	-0.625824
