data_QUKYUR_clean_PM
_symmetry_space_group_name_H-M	'P1'
_cell_length_a	8.236800
_cell_length_b	9.406300
_cell_length_c	20.366000
_cell_angle_alpha	90.000000
_cell_angle_beta	90.000000
_cell_angle_gamma	110.285999
_symmetry_Int_Tables_number 1

loop_
_symmetry_equiv_pos_as_xyz
'x,y,z'

loop_
_atom_site_label
_atom_site_type_symbol
_atom_site_fract_x
_atom_site_fract_y
_atom_site_fract_z
_atom_site_charge
Nd1	Nd	0.380680	0.402800	0.648080	2.298510
Nd2	Nd	0.619320	0.097200	0.148080	2.298510
Nd3	Nd	0.619320	0.597200	0.351920	2.298510
Nd4	Nd	0.380680	0.902800	0.851920	2.298510
Cu1	Cu	0.039660	0.954090	0.702910	0.929924
Cu2	Cu	0.960340	0.545910	0.202910	0.929924
Cu3	Cu	0.960340	0.045910	0.297090	0.929924
Cu4	Cu	0.039660	0.454090	0.797090	0.929924
P1	P	0.217730	0.699640	0.699380	1.539370
P2	P	0.782270	0.800360	0.199380	1.539370
P3	P	0.782270	0.300360	0.300620	1.539370
P4	P	0.217730	0.199640	0.800620	1.539370
H1	H	0.782700	0.738200	0.591400	0.137940
H2	H	0.873500	0.615000	0.603700	0.137940
H3	H	0.110700	0.905100	0.528700	0.137920
H4	H	0.947400	0.946700	0.553200	0.137920
H5	H	0.152200	0.688400	0.589500	0.167053
H6	H	0.286400	0.850400	0.606600	0.167053
H7	H	0.217300	0.761800	0.091400	0.137940
H8	H	0.126500	0.885000	0.103700	0.137940
H9	H	0.889300	0.594900	0.028700	0.137920
H10	H	0.052600	0.553300	0.053200	0.137920
H11	H	0.847800	0.811600	0.089500	0.167053
H12	H	0.713600	0.649600	0.106600	0.167053
H13	H	0.217300	0.261800	0.408600	0.137940
H14	H	0.126500	0.385000	0.396300	0.137940
H15	H	0.889300	0.094900	0.471300	0.137920
H16	H	0.052600	0.053300	0.446800	0.137920
H17	H	0.847800	0.311600	0.410500	0.167053
H18	H	0.713600	0.149600	0.393400	0.167053
H19	H	0.782700	0.238200	0.908600	0.137940
H20	H	0.873500	0.115000	0.896300	0.137940
H21	H	0.110700	0.405100	0.971300	0.137920
H22	H	0.947400	0.446700	0.946800	0.137920
H23	H	0.152200	0.188400	0.910500	0.167053
H24	H	0.286400	0.350400	0.893400	0.167053
C1	C	0.782600	0.679600	0.689580	0.748009
C2	C	0.861300	0.709100	0.621000	-0.251065
C3	C	0.060000	0.940400	0.566780	-0.236467
C4	C	0.180900	0.095700	0.588640	0.769333
C5	C	0.179900	0.771600	0.620870	-0.475449
C6	C	0.569600	0.462000	0.502640	0.553498
C7	C	0.217400	0.820400	0.189580	0.748009
C8	C	0.138700	0.790900	0.121000	-0.251065
C9	C	0.940000	0.559600	0.066780	-0.236467
C10	C	0.819100	0.404300	0.088640	0.769333
C11	C	0.820100	0.728400	0.120870	-0.475449
C12	C	0.430400	0.038000	0.002640	0.553498
C13	C	0.217400	0.320400	0.310420	0.748009
C14	C	0.138700	0.290900	0.379000	-0.251065
C15	C	0.940000	0.059600	0.433220	-0.236467
C16	C	0.819100	0.904300	0.411360	0.769333
C17	C	0.820100	0.228400	0.379130	-0.475449
C18	C	0.430400	0.538000	0.497360	0.553498
C19	C	0.782600	0.179600	0.810420	0.748009
C20	C	0.861300	0.209100	0.879000	-0.251065
C21	C	0.060000	0.440400	0.933220	-0.236467
C22	C	0.180900	0.595700	0.911360	0.769333
C23	C	0.179900	0.271600	0.879130	-0.475449
C24	C	0.569600	0.962000	0.997360	0.553498
N1	N	0.034100	0.832100	0.621750	0.003457
N2	N	0.965900	0.667900	0.121750	0.003457
N3	N	0.965900	0.167900	0.378250	0.003457
N4	N	0.034100	0.332100	0.878250	0.003457
O1	O	0.844000	0.781200	0.733330	-0.568895
O2	O	0.658300	0.559000	0.699700	-0.744484
O3	O	0.204000	0.116800	0.651190	-0.741587
O4	O	0.248500	0.198300	0.549300	-0.695400
O5	O	0.362800	0.638100	0.689550	-0.942610
O6	O	0.047800	0.570800	0.718600	-0.799037
O7	O	0.261000	0.835400	0.744970	-0.942610
O8	O	0.593600	0.414600	0.558530	-0.665162
O9	O	0.648200	0.455000	0.450950	-0.665162
O10	O	0.156000	0.718800	0.233330	-0.568895
O11	O	0.341700	0.941000	0.199700	-0.744484
O12	O	0.796000	0.383200	0.151190	-0.741587
O13	O	0.751500	0.301700	0.049300	-0.695400
O14	O	0.637200	0.861900	0.189550	-0.942610
O15	O	0.952200	0.929200	0.218600	-0.799037
O16	O	0.739000	0.664600	0.244970	-0.942610
O17	O	0.406400	0.085400	0.058530	-0.665162
O18	O	0.351800	0.045000	0.950950	-0.665162
O19	O	0.156000	0.218800	0.266670	-0.568895
O20	O	0.341700	0.441000	0.300300	-0.744484
O21	O	0.796000	0.883200	0.348810	-0.741587
O22	O	0.751500	0.801700	0.450700	-0.695400
O23	O	0.637200	0.361900	0.310450	-0.942610
O24	O	0.952200	0.429200	0.281400	-0.799037
O25	O	0.739000	0.164600	0.255030	-0.942610
O26	O	0.406400	0.585400	0.441470	-0.665162
O27	O	0.351800	0.545000	0.549050	-0.665162
O28	O	0.844000	0.281200	0.766670	-0.568895
O29	O	0.658300	0.059000	0.800300	-0.744484
O30	O	0.204000	0.616800	0.848810	-0.741587
O31	O	0.248500	0.698300	0.950700	-0.695400
O32	O	0.362800	0.138100	0.810450	-0.942610
O33	O	0.047800	0.070800	0.781400	-0.799037
O34	O	0.261000	0.335400	0.755030	-0.942610
O35	O	0.593600	0.914600	0.941470	-0.665162
O36	O	0.648200	0.955000	0.049050	-0.665162
