data_RABHAZ_clean_PM
_symmetry_space_group_name_H-M	'P1'
_cell_length_a	7.762000
_cell_length_b	13.736000
_cell_length_c	22.014000
_cell_angle_alpha	90.000000
_cell_angle_beta	90.000000
_cell_angle_gamma	91.039999
_symmetry_Int_Tables_number 1

loop_
_symmetry_equiv_pos_as_xyz
'x,y,z'

loop_
_atom_site_label
_atom_site_type_symbol
_atom_site_fract_x
_atom_site_fract_y
_atom_site_fract_z
_atom_site_charge
Cd1	Cd	0.936840	0.828560	0.798040	0.923826
Cd2	Cd	0.063160	0.671440	0.298040	0.923826
Cd3	Cd	0.063160	0.171440	0.201960	0.923826
Cd4	Cd	0.936840	0.328560	0.701960	0.923826
Ni1	Ni	0.436350	0.576930	0.767790	-0.041230
Ni2	Ni	0.563650	0.923070	0.267790	-0.041230
Ni3	Ni	0.563650	0.423070	0.232210	-0.041230
Ni4	Ni	0.436350	0.076930	0.732210	-0.041230
H1	H	0.944480	0.839380	0.672050	0.289792
H2	H	0.122700	0.788130	0.693470	0.289792
H3	H	0.789790	0.702290	0.668230	0.062024
H4	H	0.943510	0.641910	0.715420	0.062024
H5	H	0.153060	0.647570	0.631950	0.085825
H6	H	0.958960	0.580990	0.613210	0.085825
H7	H	0.079270	0.778690	0.566560	0.073844
H8	H	0.864520	0.730850	0.555810	0.073844
H9	H	0.989600	0.580940	0.509810	0.085825
H10	H	0.200410	0.635940	0.516730	0.085825
H11	H	0.906370	0.717710	0.440530	0.062024
H12	H	0.124080	0.763870	0.444530	0.062024
H13	H	0.977510	0.930630	0.903130	0.289792
H14	H	0.783060	0.883210	0.903410	0.289792
H15	H	0.055520	0.660620	0.172050	0.289792
H16	H	0.877300	0.711870	0.193470	0.289792
H17	H	0.210210	0.797710	0.168230	0.062024
H18	H	0.056490	0.858090	0.215420	0.062024
H19	H	0.846940	0.852430	0.131950	0.085825
H20	H	0.041040	0.919010	0.113210	0.085825
H21	H	0.920730	0.721310	0.066560	0.073844
H22	H	0.135480	0.769150	0.055810	0.073844
H23	H	0.010400	0.919060	0.009810	0.085825
H24	H	0.799590	0.864060	0.016730	0.085825
H25	H	0.093630	0.782290	0.940530	0.062024
H26	H	0.875920	0.736130	0.944530	0.062024
H27	H	0.022490	0.569370	0.403130	0.289792
H28	H	0.216940	0.616790	0.403410	0.289792
H29	H	0.055520	0.160620	0.327950	0.289792
H30	H	0.877300	0.211870	0.306530	0.289792
H31	H	0.210210	0.297710	0.331770	0.062024
H32	H	0.056490	0.358090	0.284580	0.062024
H33	H	0.846940	0.352430	0.368050	0.085825
H34	H	0.041040	0.419010	0.386790	0.085825
H35	H	0.920730	0.221310	0.433440	0.073844
H36	H	0.135480	0.269150	0.444190	0.073844
H37	H	0.010400	0.419060	0.490190	0.085825
H38	H	0.799590	0.364060	0.483270	0.085825
H39	H	0.093630	0.282290	0.559470	0.062024
H40	H	0.875920	0.236130	0.555470	0.062024
H41	H	0.022490	0.069370	0.096870	0.289792
H42	H	0.216940	0.116790	0.096590	0.289792
H43	H	0.944480	0.339380	0.827950	0.289792
H44	H	0.122700	0.288130	0.806530	0.289792
H45	H	0.789790	0.202290	0.831770	0.062024
H46	H	0.943510	0.141910	0.784580	0.062024
H47	H	0.153060	0.147570	0.868050	0.085825
H48	H	0.958960	0.080990	0.886790	0.085825
H49	H	0.079270	0.278690	0.933440	0.073844
H50	H	0.864520	0.230850	0.944190	0.073844
H51	H	0.989600	0.080940	0.990190	0.085825
H52	H	0.200410	0.135940	0.983270	0.085825
H53	H	0.906370	0.217710	0.059470	0.062024
H54	H	0.124080	0.263870	0.055470	0.062024
H55	H	0.977510	0.430630	0.596870	0.289792
H56	H	0.783060	0.383210	0.596590	0.289792
C1	C	0.604800	0.662300	0.793300	0.082283
C2	C	0.610600	0.995500	0.762300	0.082283
C3	C	0.267200	0.993200	0.761200	0.082283
C4	C	0.265500	0.159400	0.700800	0.082283
C5	C	0.927700	0.694500	0.678300	0.091999
C6	C	0.015000	0.653800	0.621700	-0.182877
C7	C	0.999900	0.711700	0.563200	-0.079601
C8	C	0.062800	0.650200	0.509800	-0.182877
C9	C	0.041900	0.697900	0.446700	0.091999
C10	C	0.395200	0.837700	0.293300	0.082283
C11	C	0.389400	0.504500	0.262300	0.082283
C12	C	0.732800	0.506800	0.261200	0.082283
C13	C	0.734500	0.340600	0.200800	0.082283
C14	C	0.072300	0.805500	0.178300	0.091999
C15	C	0.985000	0.846200	0.121700	-0.182877
C16	C	0.000100	0.788300	0.063200	-0.079601
C17	C	0.937200	0.849800	0.009800	-0.182877
C18	C	0.958100	0.802100	0.946700	0.091999
C19	C	0.395200	0.337700	0.206700	0.082283
C20	C	0.389400	0.004500	0.237700	0.082283
C21	C	0.732800	0.006800	0.238800	0.082283
C22	C	0.734500	0.840600	0.299200	0.082283
C23	C	0.072300	0.305500	0.321700	0.091999
C24	C	0.985000	0.346200	0.378300	-0.182877
C25	C	0.000100	0.288300	0.436800	-0.079601
C26	C	0.937200	0.349800	0.490200	-0.182877
C27	C	0.958100	0.302100	0.553300	0.091999
C28	C	0.604800	0.162300	0.706700	0.082283
C29	C	0.610600	0.495500	0.737700	0.082283
C30	C	0.267200	0.493200	0.738800	0.082283
C31	C	0.265500	0.659400	0.799200	0.082283
C32	C	0.927700	0.194500	0.821700	0.091999
C33	C	0.015000	0.153800	0.878300	-0.182877
C34	C	0.999900	0.211700	0.936800	-0.079601
C35	C	0.062800	0.150200	0.990200	-0.182877
C36	C	0.041900	0.197900	0.053300	0.091999
N1	N	0.709300	0.715800	0.807700	-0.395692
N2	N	0.722700	0.946600	0.778600	-0.395692
N3	N	0.162200	0.944700	0.781000	-0.395692
N4	N	0.160200	0.709700	0.817900	-0.395692
N5	N	0.994700	0.788100	0.698600	-0.632930
N6	N	0.907900	0.869400	0.897100	-0.632930
N7	N	0.290700	0.784200	0.307700	-0.395692
N8	N	0.277300	0.553400	0.278600	-0.395692
N9	N	0.837800	0.555300	0.281000	-0.395692
N10	N	0.839800	0.790300	0.317900	-0.395692
N11	N	0.005300	0.711900	0.198600	-0.632930
N12	N	0.092100	0.630600	0.397100	-0.632930
N13	N	0.290700	0.284200	0.192300	-0.395692
N14	N	0.277300	0.053400	0.221400	-0.395692
N15	N	0.837800	0.055300	0.219000	-0.395692
N16	N	0.839800	0.290300	0.182100	-0.395692
N17	N	0.005300	0.211900	0.301400	-0.632930
N18	N	0.092100	0.130600	0.102900	-0.632930
N19	N	0.709300	0.215800	0.692300	-0.395692
N20	N	0.722700	0.446600	0.721400	-0.395692
N21	N	0.162200	0.444700	0.719000	-0.395692
N22	N	0.160200	0.209700	0.682100	-0.395692
N23	N	0.994700	0.288100	0.801400	-0.632930
N24	N	0.907900	0.369400	0.602900	-0.632930
