data_RAPYUE_clean_PM
_symmetry_space_group_name_H-M	'P1'
_cell_length_a	10.337000
_cell_length_b	14.437000
_cell_length_c	19.420000
_cell_angle_alpha	90.000000
_cell_angle_beta	90.268998
_cell_angle_gamma	90.000000
_symmetry_Int_Tables_number 1

loop_
_symmetry_equiv_pos_as_xyz
'x,y,z'

loop_
_atom_site_label
_atom_site_type_symbol
_atom_site_fract_x
_atom_site_fract_y
_atom_site_fract_z
_atom_site_charge
Zn1	Zn	0.654430	0.915990	0.248550	1.113239
Zn2	Zn	0.969150	0.985040	0.249710	1.002897
Zn3	Zn	0.155050	0.780100	0.251390	1.035374
Zn4	Zn	0.469940	0.710620	0.250290	1.089172
Zn5	Zn	0.345570	0.415990	0.751450	1.113239
Zn6	Zn	0.030850	0.485040	0.750290	1.002897
Zn7	Zn	0.844950	0.280100	0.748610	1.035374
Zn8	Zn	0.530060	0.210620	0.749710	1.089172
H1	H	0.955300	0.086700	0.050300	0.109769
H2	H	0.923600	0.175500	0.945600	0.109769
H3	H	0.558900	0.056500	0.941800	0.109769
H4	H	0.573800	0.053000	0.065400	0.109769
H5	H	0.575000	0.051100	0.436900	0.109769
H6	H	0.549900	0.080200	0.550700	0.109769
H7	H	0.932800	0.174900	0.549500	0.109769
H8	H	0.947000	0.093800	0.443500	0.109769
H9	H	0.286000	0.079300	0.279900	0.088185
H10	H	0.271600	0.060800	0.201600	0.088185
H11	H	0.044700	0.586700	0.949700	0.109769
H12	H	0.076400	0.675500	0.054400	0.109769
H13	H	0.441100	0.556500	0.058200	0.109769
H14	H	0.426200	0.553000	0.934600	0.109769
H15	H	0.425000	0.551100	0.563100	0.109769
H16	H	0.450100	0.580200	0.449300	0.109769
H17	H	0.067200	0.674900	0.450500	0.109769
H18	H	0.053000	0.593800	0.556500	0.109769
H19	H	0.714000	0.579300	0.720100	0.088185
H20	H	0.728400	0.560800	0.798400	0.088185
C1	C	0.791800	0.026700	0.130600	0.683798
C2	C	0.769200	0.066300	0.062000	-0.119556
C3	C	0.873600	0.095600	0.031200	-0.052729
C4	C	0.855700	0.143000	0.965500	-0.052729
C5	C	0.734300	0.138700	0.932800	-0.123641
C6	C	0.721500	0.169100	0.855700	0.696787
C7	C	0.628700	0.080000	0.966600	-0.052729
C8	C	0.644000	0.064300	0.036900	-0.052729
C9	C	0.792300	0.024800	0.356700	0.683798
C10	C	0.756400	0.064900	0.434100	-0.119556
C11	C	0.647100	0.067500	0.463000	-0.052729
C12	C	0.627900	0.092500	0.528800	-0.052729
C13	C	0.731100	0.138700	0.564300	-0.123641
C14	C	0.724000	0.172500	0.638300	0.696787
C15	C	0.862300	0.144600	0.529800	-0.052729
C16	C	0.867800	0.100000	0.465500	-0.052729
C17	C	0.231000	0.049300	0.245900	0.164092
C18	C	0.364900	0.918900	0.254700	0.659990
C19	C	0.866000	0.791800	0.247100	0.420513
C20	C	0.243000	0.969000	0.255800	0.169635
C21	C	0.208200	0.526700	0.869400	0.683798
C22	C	0.230800	0.566300	0.938000	-0.119556
C23	C	0.126400	0.595600	0.968800	-0.052729
C24	C	0.144300	0.643000	0.034500	-0.052729
C25	C	0.265700	0.638700	0.067200	-0.123641
C26	C	0.278500	0.669100	0.144300	0.696787
C27	C	0.371300	0.580000	0.033400	-0.052729
C28	C	0.356000	0.564300	0.963100	-0.052729
C29	C	0.207700	0.524800	0.643300	0.683798
C30	C	0.243600	0.564900	0.565900	-0.119556
C31	C	0.352900	0.567500	0.537000	-0.052729
C32	C	0.372100	0.592500	0.471200	-0.052729
C33	C	0.268900	0.638700	0.435700	-0.123641
C34	C	0.276000	0.672500	0.361700	0.696787
C35	C	0.137700	0.644600	0.470200	-0.052729
C36	C	0.132200	0.600000	0.534500	-0.052729
C37	C	0.769000	0.549300	0.754100	0.164092
C38	C	0.635100	0.418900	0.745300	0.659990
C39	C	0.134000	0.291800	0.752900	0.420513
C40	C	0.757000	0.469000	0.744200	0.169635
N1	N	0.131700	0.914400	0.245800	-0.516114
N2	N	0.626400	0.782500	0.253300	-0.608652
N3	N	0.868300	0.414400	0.754200	-0.516114
N4	N	0.373600	0.282500	0.746700	-0.608652
O1	O	0.896500	0.031600	0.162100	-0.579120
O2	O	0.689800	0.987900	0.164800	-0.580656
O3	O	0.605900	0.163300	0.835700	-0.592000
O4	O	0.816900	0.210700	0.837000	-0.583265
O5	O	0.895100	0.036000	0.334300	-0.579120
O6	O	0.691400	0.987300	0.332800	-0.580656
O7	O	0.604900	0.168600	0.663300	-0.592000
O8	O	0.814800	0.212000	0.661900	-0.583265
O9	O	0.111700	0.102200	0.244900	-0.497605
O10	O	0.356900	0.833400	0.249900	-0.616845
O11	O	0.463700	0.961500	0.253200	-0.545044
O12	O	0.971000	0.739800	0.249400	-0.515646
O13	O	0.853000	0.871000	0.250400	-0.592390
O14	O	0.103500	0.531600	0.837900	-0.579120
O15	O	0.310200	0.487900	0.835200	-0.580656
O16	O	0.394100	0.663300	0.164300	-0.592000
O17	O	0.183100	0.710700	0.163000	-0.583265
O18	O	0.104900	0.536000	0.665700	-0.579120
O19	O	0.308600	0.487300	0.667200	-0.580656
O20	O	0.395100	0.668600	0.336700	-0.592000
O21	O	0.185200	0.712000	0.338100	-0.583265
O22	O	0.888300	0.602200	0.755100	-0.497605
O23	O	0.643100	0.333400	0.750100	-0.616845
O24	O	0.536300	0.461500	0.746800	-0.545044
O25	O	0.029000	0.239800	0.750600	-0.515646
O26	O	0.147000	0.371000	0.749600	-0.592390
