data_REFJET_clean_PM
_symmetry_space_group_name_H-M	'P1'
_cell_length_a	7.362800
_cell_length_b	18.111000
_cell_length_c	18.111000
_cell_angle_alpha	80.861602
_cell_angle_beta	85.116001
_cell_angle_gamma	85.115999
_symmetry_Int_Tables_number 1

loop_
_symmetry_equiv_pos_as_xyz
'x,y,z'

loop_
_atom_site_label
_atom_site_type_symbol
_atom_site_fract_x
_atom_site_fract_y
_atom_site_fract_z
_atom_site_charge
K1	K	0.782910	0.009160	0.576160	1.078599
K2	K	0.717090	0.423840	0.990840	1.078599
K3	K	0.217090	0.990840	0.423840	1.078599
K4	K	0.282910	0.576160	0.009160	1.078599
In1	In	0.702590	0.861880	0.447710	1.699929
In2	In	0.797410	0.552290	0.138120	1.699929
In3	In	0.297410	0.138120	0.552290	1.699929
In4	In	0.202590	0.447710	0.861880	1.699929
H1	H	0.543500	0.257400	0.314800	0.116995
H2	H	0.944700	0.688900	0.288500	0.116995
H3	H	0.841900	0.044900	0.244500	0.116995
H4	H	0.956500	0.685200	0.742600	0.116995
H5	H	0.555300	0.711500	0.311100	0.116995
H6	H	0.658100	0.755500	0.955100	0.116995
H7	H	0.456500	0.742600	0.685200	0.116995
H8	H	0.055300	0.311100	0.711500	0.116995
H9	H	0.158100	0.955100	0.755500	0.116995
H10	H	0.043500	0.314800	0.257400	0.116995
H11	H	0.444700	0.288500	0.688900	0.116995
H12	H	0.341900	0.244500	0.044900	0.116995
C1	C	0.601300	0.214110	0.299510	-0.039585
C2	C	0.696200	0.083650	0.329650	-0.109876
C3	C	0.709400	0.010640	0.380040	0.725039
C4	C	0.117700	0.740000	0.340000	-0.074219
C5	C	0.602400	0.148480	0.350280	-0.087559
C6	C	0.068100	0.693410	0.292810	-0.032991
C7	C	0.302400	0.748330	0.346730	-0.074509
C8	C	0.365000	0.798400	0.396600	0.640563
C9	C	0.965900	0.780620	0.381620	0.633416
C10	C	0.498000	0.148000	0.424600	0.717476
C11	C	0.778800	0.087870	0.258270	-0.028283
C12	C	0.681500	0.218900	0.227300	-0.053116
C13	C	0.773400	0.152510	0.205710	-0.058083
C14	C	0.656800	0.296400	0.181600	0.622172
C15	C	0.867600	0.142700	0.129900	0.613918
C16	C	0.898700	0.700490	0.785890	-0.039585
C17	C	0.803800	0.670350	0.916350	-0.109876
C18	C	0.790600	0.619960	0.989360	0.725039
C19	C	0.382300	0.660000	0.260000	-0.074219
C20	C	0.897600	0.649720	0.851520	-0.087559
C21	C	0.431900	0.707190	0.306590	-0.032991
C22	C	0.197600	0.653270	0.251670	-0.074509
C23	C	0.135000	0.603400	0.201600	0.640563
C24	C	0.534100	0.618380	0.219380	0.633416
C25	C	0.002000	0.575400	0.852000	0.717476
C26	C	0.721200	0.741730	0.912130	-0.028283
C27	C	0.818500	0.772700	0.781100	-0.053116
C28	C	0.726600	0.794290	0.847490	-0.058083
C29	C	0.843200	0.818400	0.703600	0.622172
C30	C	0.632400	0.870100	0.857300	0.613918
C31	C	0.398700	0.785890	0.700490	-0.039585
C32	C	0.303800	0.916350	0.670350	-0.109876
C33	C	0.290600	0.989360	0.619960	0.725039
C34	C	0.882300	0.260000	0.660000	-0.074219
C35	C	0.397600	0.851520	0.649720	-0.087559
C36	C	0.931900	0.306590	0.707190	-0.032991
C37	C	0.697600	0.251670	0.653270	-0.074509
C38	C	0.635000	0.201600	0.603400	0.640563
C39	C	0.034100	0.219380	0.618380	0.633416
C40	C	0.502000	0.852000	0.575400	0.717476
C41	C	0.221200	0.912130	0.741730	-0.028283
C42	C	0.318500	0.781100	0.772700	-0.053116
C43	C	0.226600	0.847490	0.794290	-0.058083
C44	C	0.343200	0.703600	0.818400	0.622172
C45	C	0.132400	0.857300	0.870100	0.613918
C46	C	0.101300	0.299510	0.214110	-0.039585
C47	C	0.196200	0.329650	0.083650	-0.109876
C48	C	0.209400	0.380040	0.010640	0.725039
C49	C	0.617700	0.340000	0.740000	-0.074219
C50	C	0.102400	0.350280	0.148480	-0.087559
C51	C	0.568100	0.292810	0.693410	-0.032991
C52	C	0.802400	0.346730	0.748330	-0.074509
C53	C	0.865000	0.396600	0.798400	0.640563
C54	C	0.465900	0.381620	0.780620	0.633416
C55	C	0.998000	0.424600	0.148000	0.717476
C56	C	0.278800	0.258270	0.087870	-0.028283
C57	C	0.181500	0.227300	0.218900	-0.053116
C58	C	0.273400	0.205710	0.152510	-0.058083
C59	C	0.156800	0.181600	0.296400	0.622172
C60	C	0.367600	0.129900	0.142700	0.613918
O1	O	0.599900	0.962510	0.371490	-0.688820
O2	O	0.710900	0.307700	0.113060	-0.538450
O3	O	0.884400	0.746030	0.438030	-0.485338
O4	O	0.426000	0.207160	0.444700	-0.591347
O5	O	0.919500	0.847750	0.357470	-0.540784
O6	O	0.831600	0.995670	0.422890	-0.602696
O7	O	0.255000	0.830600	0.437200	-0.556904
O8	O	0.474800	0.085450	0.466090	-0.670082
O9	O	0.535100	0.804700	0.388920	-0.566760
O10	O	0.579400	0.346790	0.213190	-0.475192
O11	O	0.865400	0.197240	0.075640	-0.403752
O12	O	0.949900	0.083050	0.122850	-0.403752
O13	O	0.900100	0.628510	0.037490	-0.688820
O14	O	0.789100	0.886940	0.692300	-0.538450
O15	O	0.615600	0.561970	0.253970	-0.485338
O16	O	0.074000	0.555300	0.792840	-0.591347
O17	O	0.580500	0.642530	0.152250	-0.540784
O18	O	0.668400	0.577110	0.004330	-0.602696
O19	O	0.245000	0.562800	0.169400	-0.556904
O20	O	0.025200	0.533910	0.914550	-0.670082
O21	O	0.964900	0.611080	0.195300	-0.566760
O22	O	0.920600	0.786810	0.653210	-0.475192
O23	O	0.634600	0.924360	0.802760	-0.403752
O24	O	0.550100	0.877150	0.916950	-0.403752
O25	O	0.400100	0.037490	0.628510	-0.688820
O26	O	0.289100	0.692300	0.886940	-0.538450
O27	O	0.115600	0.253970	0.561970	-0.485338
O28	O	0.574000	0.792840	0.555300	-0.591347
O29	O	0.080500	0.152250	0.642530	-0.540784
O30	O	0.168400	0.004330	0.577110	-0.602696
O31	O	0.745000	0.169400	0.562800	-0.556904
O32	O	0.525200	0.914550	0.533910	-0.670082
O33	O	0.464900	0.195300	0.611080	-0.566760
O34	O	0.420600	0.653210	0.786810	-0.475192
O35	O	0.134600	0.802760	0.924360	-0.403752
O36	O	0.050100	0.916950	0.877150	-0.403752
O37	O	0.099900	0.371490	0.962510	-0.688820
O38	O	0.210900	0.113060	0.307700	-0.538450
O39	O	0.384400	0.438030	0.746030	-0.485338
O40	O	0.926000	0.444700	0.207160	-0.591347
O41	O	0.419500	0.357470	0.847750	-0.540784
O42	O	0.331600	0.422890	0.995670	-0.602696
O43	O	0.755000	0.437200	0.830600	-0.556904
O44	O	0.974800	0.466090	0.085450	-0.670082
O45	O	0.035100	0.388920	0.804700	-0.566760
O46	O	0.079400	0.213190	0.346790	-0.475192
O47	O	0.365400	0.075640	0.197240	-0.403752
O48	O	0.449900	0.122850	0.083050	-0.403752
