data_RESWUI01_clean_PM
_symmetry_space_group_name_H-M	'P1'
_cell_length_a	8.513900
_cell_length_b	10.216500
_cell_length_c	11.072100
_cell_angle_alpha	64.208002
_cell_angle_beta	71.562998
_cell_angle_gamma	80.752000
_symmetry_Int_Tables_number 1

loop_
_symmetry_equiv_pos_as_xyz
'x,y,z'

loop_
_atom_site_label
_atom_site_type_symbol
_atom_site_fract_x
_atom_site_fract_y
_atom_site_fract_z
_atom_site_charge
Er1	Er	0.866510	0.063790	0.837680	1.495375
Er2	Er	0.133490	0.936210	0.162310	1.495375
H1	H	0.994000	0.473500	0.221500	0.112095
H2	H	0.051600	0.726400	0.810400	0.112095
H3	H	0.461700	0.149600	0.617400	0.112095
H4	H	0.274100	0.884300	0.514900	0.112095
H5	H	0.779100	0.452000	0.415200	0.112095
H6	H	0.360700	0.365800	0.733500	0.112095
H7	H	0.006000	0.526500	0.778500	0.112095
H8	H	0.948400	0.273600	0.189600	0.112095
H9	H	0.538300	0.850400	0.382600	0.112095
H10	H	0.725900	0.115700	0.485100	0.112095
H11	H	0.220900	0.548000	0.584800	0.112095
H12	H	0.639300	0.634200	0.266500	0.112095
C1	C	0.056000	0.746400	0.042800	0.700873
C2	C	0.027600	0.619200	0.019500	-0.109669
C3	C	0.996500	0.484300	0.131200	-0.049862
C4	C	0.030700	0.634400	0.887500	-0.049862
C5	C	0.173600	0.046500	0.661400	0.700873
C6	C	0.342700	0.021100	0.577800	-0.109669
C7	C	0.477600	0.088900	0.569300	-0.049862
C8	C	0.365600	0.931400	0.508700	-0.049862
C9	C	0.677300	0.272500	0.678700	0.700873
C10	C	0.584500	0.391900	0.587300	-0.109669
C11	C	0.664800	0.471500	0.450100	-0.049862
C12	C	0.417800	0.420100	0.638700	-0.049862
C13	C	0.944000	0.253600	0.957200	0.700873
C14	C	0.972400	0.380800	0.980500	-0.109669
C15	C	0.003500	0.515700	0.868800	-0.049862
C16	C	0.969300	0.365600	0.112500	-0.049862
C17	C	0.826400	0.953500	0.338600	0.700873
C18	C	0.657300	0.978900	0.422200	-0.109669
C19	C	0.522400	0.911100	0.430700	-0.049862
C20	C	0.634400	0.068600	0.491300	-0.049862
C21	C	0.322700	0.727500	0.321300	0.700873
C22	C	0.415500	0.608100	0.412700	-0.109669
C23	C	0.335200	0.528500	0.549900	-0.049862
C24	C	0.582200	0.579900	0.361300	-0.049862
O1	O	0.015900	0.872800	0.967000	-0.607064
O2	O	0.121800	0.723500	0.136500	-0.607064
O3	O	0.051500	0.989200	0.663400	-0.607064
O4	O	0.155000	0.122400	0.730200	-0.607064
O5	O	0.826600	0.246200	0.626800	-0.607064
O6	O	0.605000	0.196500	0.805900	-0.607064
O7	O	0.984100	0.127200	0.033000	-0.607064
O8	O	0.878200	0.276500	0.863500	-0.607064
O9	O	0.948500	0.010800	0.336600	-0.607064
O10	O	0.845000	0.877600	0.269800	-0.607064
O11	O	0.173400	0.753800	0.373200	-0.607064
O12	O	0.395000	0.803500	0.194100	-0.607064
