data_RETBEZ_clean_PM
_symmetry_space_group_name_H-M	'P1'
_cell_length_a	11.253000
_cell_length_b	18.172000
_cell_length_c	25.161000
_cell_angle_alpha	90.000000
_cell_angle_beta	90.000000
_cell_angle_gamma	90.000000
_symmetry_Int_Tables_number 1

loop_
_symmetry_equiv_pos_as_xyz
'x,y,z'

loop_
_atom_site_label
_atom_site_type_symbol
_atom_site_fract_x
_atom_site_fract_y
_atom_site_fract_z
_atom_site_charge
Zn1	Zn	0.620270	0.926410	0.025370	0.965843
Zn2	Zn	0.379730	0.926410	0.474630	0.965843
Zn3	Zn	0.620270	0.573590	0.974630	0.965843
Zn4	Zn	0.379730	0.573590	0.525370	0.965843
Zn5	Zn	0.379730	0.073590	0.974630	0.965843
Zn6	Zn	0.620270	0.073590	0.525370	0.965843
Zn7	Zn	0.379730	0.426410	0.025370	0.965843
Zn8	Zn	0.620270	0.426410	0.474630	0.965843
Zn9	Zn	0.000000	0.709850	0.750000	0.858285
Zn10	Zn	0.000000	0.790150	0.250000	0.858285
Zn11	Zn	0.000000	0.290150	0.250000	0.858285
Zn12	Zn	0.000000	0.209850	0.750000	0.858285
H1	H	0.510100	0.792800	0.948700	0.102364
H2	H	0.295100	0.687100	0.848000	0.102364
H3	H	0.274800	0.906000	0.860800	0.102364
H4	H	0.735500	0.985100	0.921900	0.121064
H5	H	0.873100	0.017100	0.857000	0.096219
H6	H	0.072700	0.988900	0.867500	0.096219
H7	H	0.140600	0.928000	0.941100	0.120432
H8	H	0.952600	0.869400	0.140200	0.084066
H9	H	0.734500	0.750200	0.049200	0.099737
H10	H	0.709200	0.671100	0.119800	0.130902
H11	H	0.810300	0.691400	0.197500	0.084283
H12	H	0.163500	0.865500	0.024300	0.093881
H13	H	0.101500	0.849000	0.078800	0.093881
H14	H	0.035600	0.734700	0.045800	0.083284
H15	H	0.174600	0.739200	0.045100	0.083284
H16	H	0.489900	0.792800	0.551300	0.102364
H17	H	0.704900	0.687100	0.652000	0.102364
H18	H	0.725200	0.906000	0.639200	0.102364
H19	H	0.264500	0.985100	0.578100	0.121064
H20	H	0.126900	0.017100	0.643000	0.096219
H21	H	0.927300	0.988900	0.632500	0.096219
H22	H	0.859400	0.928000	0.558900	0.120432
H23	H	0.047400	0.869400	0.359800	0.084066
H24	H	0.265500	0.750200	0.450800	0.099737
H25	H	0.290800	0.671100	0.380200	0.130902
H26	H	0.189700	0.691400	0.302500	0.084283
H27	H	0.836500	0.865500	0.475700	0.093881
H28	H	0.898500	0.849000	0.421200	0.093881
H29	H	0.964400	0.734700	0.454200	0.083284
H30	H	0.825400	0.739200	0.454900	0.083284
H31	H	0.510100	0.707200	0.051300	0.102364
H32	H	0.295100	0.812900	0.152000	0.102364
H33	H	0.274800	0.594000	0.139200	0.102364
H34	H	0.735500	0.514900	0.078100	0.121064
H35	H	0.873100	0.482900	0.143000	0.096219
H36	H	0.072700	0.511100	0.132500	0.096219
H37	H	0.140600	0.572000	0.058900	0.120432
H38	H	0.952600	0.630600	0.859800	0.084066
H39	H	0.734500	0.749800	0.950800	0.099737
H40	H	0.709200	0.828900	0.880200	0.130902
H41	H	0.810300	0.808600	0.802500	0.084283
H42	H	0.163500	0.634500	0.975700	0.093881
H43	H	0.101500	0.651000	0.921200	0.093881
H44	H	0.035600	0.765300	0.954200	0.083284
H45	H	0.174600	0.760800	0.954900	0.083284
H46	H	0.489900	0.707200	0.448700	0.102364
H47	H	0.704900	0.812900	0.348000	0.102364
H48	H	0.725200	0.594000	0.360800	0.102364
H49	H	0.264500	0.514900	0.421900	0.121064
H50	H	0.126900	0.482900	0.357000	0.096219
H51	H	0.927300	0.511100	0.367500	0.096219
H52	H	0.859400	0.572000	0.441100	0.120432
H53	H	0.047400	0.630600	0.640200	0.084066
H54	H	0.265500	0.749800	0.549200	0.099737
H55	H	0.290800	0.828900	0.619800	0.130902
H56	H	0.189700	0.808600	0.697500	0.084283
H57	H	0.836500	0.634500	0.524300	0.093881
H58	H	0.898500	0.651000	0.578800	0.093881
H59	H	0.964400	0.765300	0.545800	0.083284
H60	H	0.825400	0.760800	0.545100	0.083284
H61	H	0.489900	0.207200	0.051300	0.102364
H62	H	0.704900	0.312900	0.152000	0.102364
H63	H	0.725200	0.094000	0.139200	0.102364
H64	H	0.264500	0.014900	0.078100	0.121064
H65	H	0.126900	0.982900	0.143000	0.096219
H66	H	0.927300	0.011100	0.132500	0.096219
H67	H	0.859400	0.072000	0.058900	0.120432
H68	H	0.047400	0.130600	0.859800	0.084066
H69	H	0.265500	0.249800	0.950800	0.099737
H70	H	0.290800	0.328900	0.880200	0.130902
H71	H	0.189700	0.308600	0.802500	0.084283
H72	H	0.836500	0.134500	0.975700	0.093881
H73	H	0.898500	0.151000	0.921200	0.093881
H74	H	0.964400	0.265300	0.954200	0.083284
H75	H	0.825400	0.260800	0.954900	0.083284
H76	H	0.510100	0.207200	0.448700	0.102364
H77	H	0.295100	0.312900	0.348000	0.102364
H78	H	0.274800	0.094000	0.360800	0.102364
H79	H	0.735500	0.014900	0.421900	0.121064
H80	H	0.873100	0.982900	0.357000	0.096219
H81	H	0.072700	0.011100	0.367500	0.096219
H82	H	0.140600	0.072000	0.441100	0.120432
H83	H	0.952600	0.130600	0.640200	0.084066
H84	H	0.734500	0.249800	0.549200	0.099737
H85	H	0.709200	0.328900	0.619800	0.130902
H86	H	0.810300	0.308600	0.697500	0.084283
H87	H	0.163500	0.134500	0.524300	0.093881
H88	H	0.101500	0.151000	0.578800	0.093881
H89	H	0.035600	0.265300	0.545800	0.083284
H90	H	0.174600	0.260800	0.545100	0.083284
H91	H	0.489900	0.292800	0.948700	0.102364
H92	H	0.704900	0.187100	0.848000	0.102364
H93	H	0.725200	0.406000	0.860800	0.102364
H94	H	0.264500	0.485100	0.921900	0.121064
H95	H	0.126900	0.517100	0.857000	0.096219
H96	H	0.927300	0.488900	0.867500	0.096219
H97	H	0.859400	0.428000	0.941100	0.120432
H98	H	0.047400	0.369400	0.140200	0.084066
H99	H	0.265500	0.250200	0.049200	0.099737
H100	H	0.290800	0.171100	0.119800	0.130902
H101	H	0.189700	0.191400	0.197500	0.084283
H102	H	0.836500	0.365500	0.024300	0.093881
H103	H	0.898500	0.349000	0.078800	0.093881
H104	H	0.964400	0.234700	0.045800	0.083284
H105	H	0.825400	0.239200	0.045100	0.083284
H106	H	0.510100	0.292800	0.551300	0.102364
H107	H	0.295100	0.187100	0.652000	0.102364
H108	H	0.274800	0.406000	0.639200	0.102364
H109	H	0.735500	0.485100	0.578100	0.121064
H110	H	0.873100	0.517100	0.643000	0.096219
H111	H	0.072700	0.488900	0.632500	0.096219
H112	H	0.140600	0.428000	0.558900	0.120432
H113	H	0.952600	0.369400	0.359800	0.084066
H114	H	0.734500	0.250200	0.450800	0.099737
H115	H	0.709200	0.171100	0.380200	0.130902
H116	H	0.810300	0.191400	0.302500	0.084283
H117	H	0.163500	0.365500	0.475700	0.093881
H118	H	0.101500	0.349000	0.421200	0.093881
H119	H	0.035600	0.234700	0.454200	0.083284
H120	H	0.174600	0.239200	0.454900	0.083284
C1	C	0.436400	0.929200	0.936400	0.700004
C2	C	0.397700	0.860700	0.908900	-0.189271
C3	C	0.449400	0.793700	0.923600	0.008048
C4	C	0.410600	0.729400	0.901100	-0.171719
C5	C	0.321400	0.730900	0.863100	0.004778
C6	C	0.271200	0.796900	0.847300	-0.170996
C7	C	0.309100	0.861500	0.870700	0.008048
C8	C	0.172700	0.796300	0.806700	0.653845
C9	C	0.463800	0.657700	0.918000	0.654296
C10	C	0.855800	0.932300	0.968700	0.173252
C11	C	0.815100	0.972200	0.925300	-0.165163
C12	C	0.897800	0.992000	0.887200	-0.065099
C13	C	0.019100	0.974600	0.893700	-0.069428
C14	C	0.060100	0.937800	0.936800	-0.127153
C15	C	0.976100	0.915000	0.974400	0.080626
C16	C	0.874100	0.866600	0.040810	0.336173
C17	C	0.849200	0.819100	0.087100	-0.126346
C18	C	0.903700	0.828700	0.135500	0.179522
C19	C	0.773900	0.758400	0.081100	0.039982
C20	C	0.759400	0.711500	0.122800	-0.171659
C21	C	0.819500	0.724500	0.169600	0.174778
C22	C	0.096200	0.841200	0.040700	-0.012620
C23	C	0.102800	0.758900	0.029200	-0.149014
C24	C	0.563600	0.929200	0.563600	0.700004
C25	C	0.602300	0.860700	0.591100	-0.189271
C26	C	0.550600	0.793700	0.576400	0.008048
C27	C	0.589400	0.729400	0.598900	-0.171719
C28	C	0.678600	0.730900	0.636900	0.004778
C29	C	0.728800	0.796900	0.652700	-0.170996
C30	C	0.690900	0.861500	0.629300	0.008048
C31	C	0.827300	0.796300	0.693300	0.653845
C32	C	0.536200	0.657700	0.582000	0.654296
C33	C	0.144200	0.932300	0.531300	0.173252
C34	C	0.184900	0.972200	0.574700	-0.165163
C35	C	0.102200	0.992000	0.612800	-0.065099
C36	C	0.980900	0.974600	0.606300	-0.069428
C37	C	0.939900	0.937800	0.563200	-0.127153
C38	C	0.023900	0.915000	0.525600	0.080626
C39	C	0.125900	0.866600	0.459190	0.336173
C40	C	0.150800	0.819100	0.412900	-0.126346
C41	C	0.096300	0.828700	0.364500	0.179522
C42	C	0.226100	0.758400	0.418900	0.039982
C43	C	0.240600	0.711500	0.377200	-0.171659
C44	C	0.180500	0.724500	0.330400	0.174778
C45	C	0.903800	0.841200	0.459300	-0.012620
C46	C	0.897200	0.758900	0.470800	-0.149014
C47	C	0.436400	0.570800	0.063600	0.700004
C48	C	0.397700	0.639300	0.091100	-0.189271
C49	C	0.449400	0.706300	0.076400	0.008048
C50	C	0.410600	0.770600	0.098900	-0.171719
C51	C	0.321400	0.769100	0.136900	0.004778
C52	C	0.271200	0.703100	0.152700	-0.170996
C53	C	0.309100	0.638500	0.129300	0.008048
C54	C	0.172700	0.703700	0.193300	0.653845
C55	C	0.463800	0.842300	0.082000	0.654296
C56	C	0.855800	0.567700	0.031300	0.173252
C57	C	0.815100	0.527800	0.074700	-0.165163
C58	C	0.897800	0.508000	0.112800	-0.065099
C59	C	0.019100	0.525400	0.106300	-0.069428
C60	C	0.060100	0.562200	0.063200	-0.127153
C61	C	0.976100	0.585000	0.025600	0.080626
C62	C	0.874100	0.633400	0.959190	0.336173
C63	C	0.849200	0.680900	0.912900	-0.126346
C64	C	0.903700	0.671300	0.864500	0.179522
C65	C	0.773900	0.741600	0.918900	0.039982
C66	C	0.759400	0.788500	0.877200	-0.171659
C67	C	0.819500	0.775500	0.830400	0.174778
C68	C	0.096200	0.658800	0.959300	-0.012620
C69	C	0.102800	0.741100	0.970800	-0.149014
C70	C	0.563600	0.570800	0.436400	0.700004
C71	C	0.602300	0.639300	0.408900	-0.189271
C72	C	0.550600	0.706300	0.423600	0.008048
C73	C	0.589400	0.770600	0.401100	-0.171719
C74	C	0.678600	0.769100	0.363100	0.004778
C75	C	0.728800	0.703100	0.347300	-0.170996
C76	C	0.690900	0.638500	0.370700	0.008048
C77	C	0.827300	0.703700	0.306700	0.653845
C78	C	0.536200	0.842300	0.418000	0.654296
C79	C	0.144200	0.567700	0.468700	0.173252
C80	C	0.184900	0.527800	0.425300	-0.165163
C81	C	0.102200	0.508000	0.387200	-0.065099
C82	C	0.980900	0.525400	0.393700	-0.069428
C83	C	0.939900	0.562200	0.436800	-0.127153
C84	C	0.023900	0.585000	0.474400	0.080626
C85	C	0.125900	0.633400	0.540810	0.336173
C86	C	0.150800	0.680900	0.587100	-0.126346
C87	C	0.096300	0.671300	0.635500	0.179522
C88	C	0.226100	0.741600	0.581100	0.039982
C89	C	0.240600	0.788500	0.622800	-0.171659
C90	C	0.180500	0.775500	0.669600	0.174778
C91	C	0.903800	0.658800	0.540700	-0.012620
C92	C	0.897200	0.741100	0.529200	-0.149014
C93	C	0.563600	0.070800	0.063600	0.700004
C94	C	0.602300	0.139300	0.091100	-0.189271
C95	C	0.550600	0.206300	0.076400	0.008048
C96	C	0.589400	0.270600	0.098900	-0.171719
C97	C	0.678600	0.269100	0.136900	0.004778
C98	C	0.728800	0.203100	0.152700	-0.170996
C99	C	0.690900	0.138500	0.129300	0.008048
C100	C	0.827300	0.203700	0.193300	0.653845
C101	C	0.536200	0.342300	0.082000	0.654296
C102	C	0.144200	0.067700	0.031300	0.173252
C103	C	0.184900	0.027800	0.074700	-0.165163
C104	C	0.102200	0.008000	0.112800	-0.065099
C105	C	0.980900	0.025400	0.106300	-0.069428
C106	C	0.939900	0.062200	0.063200	-0.127153
C107	C	0.023900	0.085000	0.025600	0.080626
C108	C	0.125900	0.133400	0.959190	0.336173
C109	C	0.150800	0.180900	0.912900	-0.126346
C110	C	0.096300	0.171300	0.864500	0.179522
C111	C	0.226100	0.241600	0.918900	0.039982
C112	C	0.240600	0.288500	0.877200	-0.171659
C113	C	0.180500	0.275500	0.830400	0.174778
C114	C	0.903800	0.158800	0.959300	-0.012620
C115	C	0.897200	0.241100	0.970800	-0.149014
C116	C	0.436400	0.070800	0.436400	0.700004
C117	C	0.397700	0.139300	0.408900	-0.189271
C118	C	0.449400	0.206300	0.423600	0.008048
C119	C	0.410600	0.270600	0.401100	-0.171719
C120	C	0.321400	0.269100	0.363100	0.004778
C121	C	0.271200	0.203100	0.347300	-0.170996
C122	C	0.309100	0.138500	0.370700	0.008048
C123	C	0.172700	0.203700	0.306700	0.653845
C124	C	0.463800	0.342300	0.418000	0.654296
C125	C	0.855800	0.067700	0.468700	0.173252
C126	C	0.815100	0.027800	0.425300	-0.165163
C127	C	0.897800	0.008000	0.387200	-0.065099
C128	C	0.019100	0.025400	0.393700	-0.069428
C129	C	0.060100	0.062200	0.436800	-0.127153
C130	C	0.976100	0.085000	0.474400	0.080626
C131	C	0.874100	0.133400	0.540810	0.336173
C132	C	0.849200	0.180900	0.587100	-0.126346
C133	C	0.903700	0.171300	0.635500	0.179522
C134	C	0.773900	0.241600	0.581100	0.039982
C135	C	0.759400	0.288500	0.622800	-0.171659
C136	C	0.819500	0.275500	0.669600	0.174778
C137	C	0.096200	0.158800	0.540700	-0.012620
C138	C	0.102800	0.241100	0.529200	-0.149014
C139	C	0.563600	0.429200	0.936400	0.700004
C140	C	0.602300	0.360700	0.908900	-0.189271
C141	C	0.550600	0.293700	0.923600	0.008048
C142	C	0.589400	0.229400	0.901100	-0.171719
C143	C	0.678600	0.230900	0.863100	0.004778
C144	C	0.728800	0.296900	0.847300	-0.170996
C145	C	0.690900	0.361500	0.870700	0.008048
C146	C	0.827300	0.296300	0.806700	0.653845
C147	C	0.536200	0.157700	0.918000	0.654296
C148	C	0.144200	0.432300	0.968700	0.173252
C149	C	0.184900	0.472200	0.925300	-0.165163
C150	C	0.102200	0.492000	0.887200	-0.065099
C151	C	0.980900	0.474600	0.893700	-0.069428
C152	C	0.939900	0.437800	0.936800	-0.127153
C153	C	0.023900	0.415000	0.974400	0.080626
C154	C	0.125900	0.366600	0.040810	0.336173
C155	C	0.150800	0.319100	0.087100	-0.126346
C156	C	0.096300	0.328700	0.135500	0.179522
C157	C	0.226100	0.258400	0.081100	0.039982
C158	C	0.240600	0.211500	0.122800	-0.171659
C159	C	0.180500	0.224500	0.169600	0.174778
C160	C	0.903800	0.341200	0.040700	-0.012620
C161	C	0.897200	0.258900	0.029200	-0.149014
C162	C	0.436400	0.429200	0.563600	0.700004
C163	C	0.397700	0.360700	0.591100	-0.189271
C164	C	0.449400	0.293700	0.576400	0.008048
C165	C	0.410600	0.229400	0.598900	-0.171719
C166	C	0.321400	0.230900	0.636900	0.004778
C167	C	0.271200	0.296900	0.652700	-0.170996
C168	C	0.309100	0.361500	0.629300	0.008048
C169	C	0.172700	0.296300	0.693300	0.653845
C170	C	0.463800	0.157700	0.582000	0.654296
C171	C	0.855800	0.432300	0.531300	0.173252
C172	C	0.815100	0.472200	0.574700	-0.165163
C173	C	0.897800	0.492000	0.612800	-0.065099
C174	C	0.019100	0.474600	0.606300	-0.069428
C175	C	0.060100	0.437800	0.563200	-0.127153
C176	C	0.976100	0.415000	0.525600	0.080626
C177	C	0.874100	0.366600	0.459190	0.336173
C178	C	0.849200	0.319100	0.412900	-0.126346
C179	C	0.903700	0.328700	0.364500	0.179522
C180	C	0.773900	0.258400	0.418900	0.039982
C181	C	0.759400	0.211500	0.377200	-0.171659
C182	C	0.819500	0.224500	0.330400	0.174778
C183	C	0.096200	0.341200	0.459300	-0.012620
C184	C	0.102800	0.258900	0.470800	-0.149014
N1	N	0.793800	0.900980	0.010810	-0.481331
N2	N	0.985600	0.874600	0.020830	-0.045799
N3	N	0.889600	0.781800	0.176390	-0.340079
N4	N	0.206200	0.900980	0.489190	-0.481331
N5	N	0.014400	0.874600	0.479170	-0.045799
N6	N	0.110400	0.781800	0.323610	-0.340079
N7	N	0.793800	0.599020	0.989190	-0.481331
N8	N	0.985600	0.625400	0.979170	-0.045799
N9	N	0.889600	0.718200	0.823610	-0.340079
N10	N	0.206200	0.599020	0.510810	-0.481331
N11	N	0.014400	0.625400	0.520830	-0.045799
N12	N	0.110400	0.718200	0.676390	-0.340079
N13	N	0.206200	0.099020	0.989190	-0.481331
N14	N	0.014400	0.125400	0.979170	-0.045799
N15	N	0.110400	0.218200	0.823610	-0.340079
N16	N	0.793800	0.099020	0.510810	-0.481331
N17	N	0.985600	0.125400	0.520830	-0.045799
N18	N	0.889600	0.218200	0.676390	-0.340079
N19	N	0.206200	0.400980	0.010810	-0.481331
N20	N	0.014400	0.374600	0.020830	-0.045799
N21	N	0.110400	0.281800	0.176390	-0.340079
N22	N	0.793800	0.400980	0.489190	-0.481331
N23	N	0.985600	0.374600	0.479170	-0.045799
N24	N	0.889600	0.281800	0.323610	-0.340079
O1	O	0.538800	0.933250	0.955910	-0.603215
O2	O	0.360600	0.980330	0.938750	-0.603215
O3	O	0.137100	0.733000	0.793790	-0.606847
O4	O	0.135100	0.855000	0.788270	-0.594739
O5	O	0.420400	0.599200	0.903800	-0.594813
O6	O	0.552400	0.661960	0.947770	-0.614177
O7	O	0.461200	0.933250	0.544090	-0.603215
O8	O	0.639400	0.980330	0.561250	-0.603215
O9	O	0.862900	0.733000	0.706210	-0.606847
O10	O	0.864900	0.855000	0.711730	-0.594739
O11	O	0.579600	0.599200	0.596200	-0.594813
O12	O	0.447600	0.661960	0.552230	-0.614177
O13	O	0.538800	0.566750	0.044090	-0.603215
O14	O	0.360600	0.519670	0.061250	-0.603215
O15	O	0.137100	0.767000	0.206210	-0.606847
O16	O	0.135100	0.645000	0.211730	-0.594739
O17	O	0.420400	0.900800	0.096200	-0.594813
O18	O	0.552400	0.838040	0.052230	-0.614177
O19	O	0.461200	0.566750	0.455910	-0.603215
O20	O	0.639400	0.519670	0.438750	-0.603215
O21	O	0.862900	0.767000	0.293790	-0.606847
O22	O	0.864900	0.645000	0.288270	-0.594739
O23	O	0.579600	0.900800	0.403800	-0.594813
O24	O	0.447600	0.838040	0.447770	-0.614177
O25	O	0.461200	0.066750	0.044090	-0.603215
O26	O	0.639400	0.019670	0.061250	-0.603215
O27	O	0.862900	0.267000	0.206210	-0.606847
O28	O	0.864900	0.145000	0.211730	-0.594739
O29	O	0.579600	0.400800	0.096200	-0.594813
O30	O	0.447600	0.338040	0.052230	-0.614177
O31	O	0.538800	0.066750	0.455910	-0.603215
O32	O	0.360600	0.019670	0.438750	-0.603215
O33	O	0.137100	0.267000	0.293790	-0.606847
O34	O	0.135100	0.145000	0.288270	-0.594739
O35	O	0.420400	0.400800	0.403800	-0.594813
O36	O	0.552400	0.338040	0.447770	-0.614177
O37	O	0.461200	0.433250	0.955910	-0.603215
O38	O	0.639400	0.480330	0.938750	-0.603215
O39	O	0.862900	0.233000	0.793790	-0.606847
O40	O	0.864900	0.355000	0.788270	-0.594739
O41	O	0.579600	0.099200	0.903800	-0.594813
O42	O	0.447600	0.161960	0.947770	-0.614177
O43	O	0.538800	0.433250	0.544090	-0.603215
O44	O	0.360600	0.480330	0.561250	-0.603215
O45	O	0.137100	0.233000	0.706210	-0.606847
O46	O	0.135100	0.355000	0.711730	-0.594739
O47	O	0.420400	0.099200	0.596200	-0.594813
O48	O	0.552400	0.161960	0.552230	-0.614177
