data_RIFDUG01_clean_PM
_symmetry_space_group_name_H-M	'P1'
_cell_length_a	18.766600
_cell_length_b	18.766600
_cell_length_c	18.766600
_cell_angle_alpha	60.000000
_cell_angle_beta	59.999999
_cell_angle_gamma	60.000000
_symmetry_Int_Tables_number 1

loop_
_symmetry_equiv_pos_as_xyz
'x,y,z'

loop_
_atom_site_label
_atom_site_type_symbol
_atom_site_fract_x
_atom_site_fract_y
_atom_site_fract_z
_atom_site_charge
Zn1	Zn	0.500000	0.079160	0.500000	1.059023
Zn2	Zn	0.079160	0.500000	0.920840	1.059023
Zn3	Zn	0.500000	0.920840	0.500000	1.059023
Zn4	Zn	0.920840	0.500000	0.079160	1.059023
Zn5	Zn	0.500000	0.500000	0.920840	1.059023
Zn6	Zn	0.079160	0.920840	0.500000	1.059023
Zn7	Zn	0.500000	0.500000	0.079160	1.059023
Zn8	Zn	0.920840	0.079160	0.500000	1.059023
Zn9	Zn	0.500000	0.920840	0.079160	1.059023
Zn10	Zn	0.079160	0.500000	0.500000	1.059023
Zn11	Zn	0.500000	0.079160	0.920840	1.059023
Zn12	Zn	0.920840	0.500000	0.500000	1.059023
H1	H	0.770700	0.987500	0.471100	0.108175
H2	H	0.987500	0.770700	0.770700	0.108175
H3	H	0.471100	0.770700	0.770700	0.108175
H4	H	0.770700	0.471100	0.987500	0.108175
H5	H	0.770700	0.471100	0.770700	0.108175
H6	H	0.987500	0.770700	0.471100	0.108175
H7	H	0.471100	0.770700	0.987500	0.108175
H8	H	0.770700	0.987500	0.770700	0.108175
H9	H	0.770700	0.770700	0.987500	0.108175
H10	H	0.987500	0.471100	0.770700	0.108175
H11	H	0.471100	0.987500	0.770700	0.108175
H12	H	0.770700	0.770700	0.471100	0.108175
H13	H	0.012500	0.229300	0.528900	0.108175
H14	H	0.229300	0.012500	0.229300	0.108175
H15	H	0.229300	0.528900	0.229300	0.108175
H16	H	0.528900	0.229300	0.012500	0.108175
H17	H	0.528900	0.229300	0.229300	0.108175
H18	H	0.229300	0.012500	0.528900	0.108175
H19	H	0.229300	0.528900	0.012500	0.108175
H20	H	0.012500	0.229300	0.229300	0.108175
H21	H	0.229300	0.229300	0.012500	0.108175
H22	H	0.528900	0.012500	0.229300	0.108175
H23	H	0.012500	0.528900	0.229300	0.108175
H24	H	0.229300	0.229300	0.528900	0.108175
C1	C	0.663720	0.930200	0.475880	0.702629
C2	C	0.756340	0.885700	0.472260	-0.174346
C3	C	0.930200	0.663720	0.930200	0.702629
C4	C	0.885700	0.756340	0.885700	-0.174346
C5	C	0.475880	0.930200	0.663720	0.702629
C6	C	0.472260	0.885700	0.756340	-0.174346
C7	C	0.930200	0.475880	0.930200	0.702629
C8	C	0.885700	0.472260	0.885700	-0.174346
C9	C	0.663720	0.475880	0.930200	0.702629
C10	C	0.756340	0.472260	0.885700	-0.174346
C11	C	0.930200	0.930200	0.475880	0.702629
C12	C	0.885700	0.885700	0.472260	-0.174346
C13	C	0.475880	0.663720	0.930200	0.702629
C14	C	0.472260	0.756340	0.885700	-0.174346
C15	C	0.930200	0.930200	0.663720	0.702629
C16	C	0.885700	0.885700	0.756340	-0.174346
C17	C	0.663720	0.930200	0.930200	0.702629
C18	C	0.756340	0.885700	0.885700	-0.174346
C19	C	0.930200	0.475880	0.663720	0.702629
C20	C	0.885700	0.472260	0.756340	-0.174346
C21	C	0.475880	0.930200	0.930200	0.702629
C22	C	0.472260	0.885700	0.885700	-0.174346
C23	C	0.930200	0.663720	0.475880	0.702629
C24	C	0.885700	0.756340	0.472260	-0.174346
C25	C	0.069800	0.336280	0.524120	0.702629
C26	C	0.114300	0.243660	0.527740	-0.174346
C27	C	0.336280	0.069800	0.069800	0.702629
C28	C	0.243660	0.114300	0.114300	-0.174346
C29	C	0.069800	0.524120	0.336280	0.702629
C30	C	0.114300	0.527740	0.243660	-0.174346
C31	C	0.524120	0.069800	0.069800	0.702629
C32	C	0.527740	0.114300	0.114300	-0.174346
C33	C	0.524120	0.336280	0.069800	0.702629
C34	C	0.527740	0.243660	0.114300	-0.174346
C35	C	0.069800	0.069800	0.524120	0.702629
C36	C	0.114300	0.114300	0.527740	-0.174346
C37	C	0.336280	0.524120	0.069800	0.702629
C38	C	0.243660	0.527740	0.114300	-0.174346
C39	C	0.069800	0.069800	0.336280	0.702629
C40	C	0.114300	0.114300	0.243660	-0.174346
C41	C	0.069800	0.336280	0.069800	0.702629
C42	C	0.114300	0.243660	0.114300	-0.174346
C43	C	0.524120	0.069800	0.336280	0.702629
C44	C	0.527740	0.114300	0.243660	-0.174346
C45	C	0.069800	0.524120	0.069800	0.702629
C46	C	0.114300	0.527740	0.114300	-0.174346
C47	C	0.336280	0.069800	0.524120	0.702629
C48	C	0.243660	0.114300	0.527740	-0.174346
C49	C	0.799700	0.928780	0.471820	0.021914
C50	C	0.928780	0.799700	0.799700	0.021914
C51	C	0.471820	0.799700	0.799700	0.021914
C52	C	0.799700	0.471820	0.928780	0.021914
C53	C	0.799700	0.471820	0.799700	0.021914
C54	C	0.928780	0.799700	0.471820	0.021914
C55	C	0.471820	0.799700	0.928780	0.021914
C56	C	0.799700	0.928780	0.799700	0.021914
C57	C	0.799700	0.799700	0.928780	0.021914
C58	C	0.928780	0.471820	0.799700	0.021914
C59	C	0.471820	0.928780	0.799700	0.021914
C60	C	0.799700	0.799700	0.471820	0.021914
C61	C	0.071220	0.200300	0.528180	0.021914
C62	C	0.200300	0.071220	0.200300	0.021914
C63	C	0.200300	0.528180	0.200300	0.021914
C64	C	0.528180	0.200300	0.071220	0.021914
C65	C	0.528180	0.200300	0.200300	0.021914
C66	C	0.200300	0.071220	0.528180	0.021914
C67	C	0.200300	0.528180	0.071220	0.021914
C68	C	0.071220	0.200300	0.200300	0.021914
C69	C	0.200300	0.200300	0.071220	0.021914
C70	C	0.528180	0.071220	0.200300	0.021914
C71	C	0.071220	0.528180	0.200300	0.021914
C72	C	0.200300	0.200300	0.528180	0.021914
O1	O	0.627950	0.006390	0.478410	-0.593942
O2	O	0.006390	0.627950	0.887250	-0.593942
O3	O	0.478410	0.887250	0.627950	-0.593942
O4	O	0.887250	0.478410	0.006390	-0.593942
O5	O	0.627950	0.478410	0.887250	-0.593942
O6	O	0.006390	0.887250	0.478410	-0.593942
O7	O	0.478410	0.627950	0.006390	-0.593942
O8	O	0.887250	0.006390	0.627950	-0.593942
O9	O	0.627950	0.887250	0.006390	-0.593942
O10	O	0.006390	0.478410	0.627950	-0.593942
O11	O	0.478410	0.006390	0.887250	-0.593942
O12	O	0.887250	0.627950	0.478410	-0.593942
O13	O	0.993610	0.372050	0.521590	-0.593942
O14	O	0.372050	0.993610	0.112750	-0.593942
O15	O	0.112750	0.521590	0.372050	-0.593942
O16	O	0.521590	0.112750	0.993610	-0.593942
O17	O	0.521590	0.372050	0.112750	-0.593942
O18	O	0.112750	0.993610	0.521590	-0.593942
O19	O	0.372050	0.521590	0.993610	-0.593942
O20	O	0.993610	0.112750	0.372050	-0.593942
O21	O	0.112750	0.372050	0.993610	-0.593942
O22	O	0.521590	0.993610	0.372050	-0.593942
O23	O	0.993610	0.521590	0.112750	-0.593942
O24	O	0.372050	0.112750	0.521590	-0.593942
O25	O	0.372050	0.993610	0.521590	-0.593942
O26	O	0.993610	0.372050	0.112750	-0.593942
O27	O	0.521590	0.112750	0.372050	-0.593942
O28	O	0.112750	0.521590	0.993610	-0.593942
O29	O	0.372050	0.521590	0.112750	-0.593942
O30	O	0.993610	0.112750	0.521590	-0.593942
O31	O	0.521590	0.372050	0.993610	-0.593942
O32	O	0.112750	0.993610	0.372050	-0.593942
O33	O	0.372050	0.112750	0.993610	-0.593942
O34	O	0.993610	0.521590	0.372050	-0.593942
O35	O	0.521590	0.993610	0.112750	-0.593942
O36	O	0.112750	0.372050	0.521590	-0.593942
O37	O	0.006390	0.627950	0.478410	-0.593942
O38	O	0.627950	0.006390	0.887250	-0.593942
O39	O	0.887250	0.478410	0.627950	-0.593942
O40	O	0.478410	0.887250	0.006390	-0.593942
O41	O	0.478410	0.627950	0.887250	-0.593942
O42	O	0.887250	0.006390	0.478410	-0.593942
O43	O	0.627950	0.478410	0.006390	-0.593942
O44	O	0.006390	0.887250	0.627950	-0.593942
O45	O	0.887250	0.627950	0.006390	-0.593942
O46	O	0.478410	0.006390	0.627950	-0.593942
O47	O	0.006390	0.478410	0.887250	-0.593942
O48	O	0.627950	0.887250	0.478410	-0.593942
