data_RIFQEC_clean_PM
_symmetry_space_group_name_H-M	'P1'
_cell_length_a	6.329000
_cell_length_b	8.743000
_cell_length_c	13.000000
_cell_angle_alpha	105.610001
_cell_angle_beta	90.549999
_cell_angle_gamma	105.099998
_symmetry_Int_Tables_number 1

loop_
_symmetry_equiv_pos_as_xyz
'x,y,z'

loop_
_atom_site_label
_atom_site_type_symbol
_atom_site_fract_x
_atom_site_fract_y
_atom_site_fract_z
_atom_site_charge
Ce1	Ce	0.939740	0.969870	0.742750	2.246117
Ce2	Ce	0.690370	0.333010	0.924720	2.241546
Ce3	Ce	0.060260	0.030130	0.257250	2.246117
Ce4	Ce	0.309630	0.666990	0.075280	2.241546
C1	C	0.767400	0.603900	0.780900	0.573513
C2	C	0.955700	0.694300	0.870500	0.553908
C3	C	0.554000	0.948800	0.954500	0.579722
C4	C	0.906300	0.919500	0.478400	0.564192
C5	C	0.214600	0.292000	0.869000	0.906093
C6	C	0.232600	0.396100	0.219100	0.573513
C7	C	0.044300	0.305700	0.129500	0.553908
C8	C	0.446000	0.051200	0.045500	0.579722
C9	C	0.093700	0.080500	0.521600	0.564192
C10	C	0.785400	0.708000	0.131000	0.906093
O1	O	0.735100	0.681700	0.716300	-0.637201
O2	O	0.664200	0.458800	0.776000	-0.625423
O3	O	0.055100	0.838400	0.873900	-0.566171
O4	O	0.992700	0.613500	0.932500	-0.690170
O5	O	0.519400	0.798500	0.944500	-0.576506
O6	O	0.671000	0.028300	0.897000	-0.706615
O7	O	0.814300	0.852100	0.545800	-0.624196
O8	O	0.858200	0.871800	0.379100	-0.624196
O9	O	0.338100	0.430700	0.923900	-0.671553
O10	O	0.013000	0.269000	0.839900	-0.718310
O11	O	0.296900	0.169300	0.839800	-0.718310
O12	O	0.639300	0.102900	0.706400	-0.506440
O13	O	0.264900	0.318300	0.283700	-0.637201
O14	O	0.335800	0.541200	0.224000	-0.625423
O15	O	0.944900	0.161600	0.126100	-0.566171
O16	O	0.007300	0.386500	0.067500	-0.690170
O17	O	0.480600	0.201500	0.055500	-0.576506
O18	O	0.329000	0.971700	0.103000	-0.706615
O19	O	0.185700	0.147900	0.454200	-0.624196
O20	O	0.141800	0.128200	0.620900	-0.624196
O21	O	0.661900	0.569300	0.076100	-0.671553
O22	O	0.987000	0.731000	0.160100	-0.718310
O23	O	0.703100	0.830700	0.160200	-0.718310
O24	O	0.360700	0.897100	0.293600	-0.506440
