data_RUPZIM_clean_PM
_symmetry_space_group_name_H-M	'P1'
_cell_length_a	7.614500
_cell_length_b	11.133000
_cell_length_c	16.868800
_cell_angle_alpha	90.000000
_cell_angle_beta	90.000000
_cell_angle_gamma	90.000000
_symmetry_Int_Tables_number 1

loop_
_symmetry_equiv_pos_as_xyz
'x,y,z'

loop_
_atom_site_label
_atom_site_type_symbol
_atom_site_fract_x
_atom_site_fract_y
_atom_site_fract_z
_atom_site_charge
Zn1	Zn	0.897710	0.859080	0.038420	0.968355
Zn2	Zn	0.602290	0.140920	0.538420	0.968355
Zn3	Zn	0.102290	0.359080	0.461580	0.968355
Zn4	Zn	0.397710	0.640920	0.961580	0.968355
H1	H	0.783400	0.794800	0.784100	0.116003
H2	H	0.755100	0.607400	0.367900	0.140128
H3	H	0.984200	0.400800	0.154900	0.116003
H4	H	0.740700	0.827000	0.649500	0.140128
H5	H	0.987400	0.314600	0.280000	0.140128
H6	H	0.754600	0.694400	0.242700	0.116003
H7	H	0.987000	0.124000	0.805600	0.116003
H8	H	0.939000	0.174000	0.669000	0.140128
H9	H	0.716600	0.205200	0.284100	0.116003
H10	H	0.744900	0.392600	0.867900	0.140128
H11	H	0.515800	0.599200	0.654900	0.116003
H12	H	0.759300	0.173000	0.149500	0.140128
H13	H	0.512600	0.685400	0.780000	0.140128
H14	H	0.745400	0.305600	0.742700	0.116003
H15	H	0.513000	0.876000	0.305600	0.116003
H16	H	0.561000	0.826000	0.169000	0.140128
H17	H	0.216600	0.294800	0.715900	0.116003
H18	H	0.244900	0.107400	0.132100	0.140128
H19	H	0.015800	0.900800	0.345100	0.116003
H20	H	0.259300	0.327000	0.850500	0.140128
H21	H	0.012600	0.814600	0.220000	0.140128
H22	H	0.245400	0.194400	0.257300	0.116003
H23	H	0.013000	0.624000	0.694400	0.116003
H24	H	0.061000	0.674000	0.831000	0.140128
H25	H	0.283400	0.705200	0.215900	0.116003
H26	H	0.255100	0.892600	0.632100	0.140128
H27	H	0.484200	0.099200	0.845100	0.116003
H28	H	0.240700	0.673000	0.350500	0.140128
H29	H	0.487400	0.185400	0.720000	0.140128
H30	H	0.254600	0.805600	0.757300	0.116003
H31	H	0.487000	0.376000	0.194400	0.116003
H32	H	0.439000	0.326000	0.331000	0.140128
C1	C	0.914400	0.085000	0.693500	-0.171552
C2	C	0.815700	0.867700	0.761600	0.029423
C3	C	0.889300	0.955000	0.808200	-0.118565
C4	C	0.799600	0.564900	0.324800	-0.171552
C5	C	0.868900	0.556300	0.185500	-0.118565
C6	C	0.937400	0.442900	0.197600	0.029423
C7	C	0.788900	0.887000	0.681000	-0.171552
C8	C	0.864600	0.450200	0.335800	0.375026
C9	C	0.912800	0.933900	0.893500	0.660494
C10	C	0.937800	0.390100	0.272700	-0.171552
C11	C	0.800400	0.617700	0.249600	0.029423
C12	C	0.835200	0.997700	0.648300	0.375026
C13	C	0.938000	0.064300	0.774000	0.029423
C14	C	0.872700	0.616100	0.105500	0.660494
C15	C	0.585600	0.915000	0.193500	-0.171552
C16	C	0.684300	0.132300	0.261600	0.029423
C17	C	0.610700	0.045000	0.308200	-0.118565
C18	C	0.700400	0.435100	0.824800	-0.171552
C19	C	0.631100	0.443700	0.685500	-0.118565
C20	C	0.562600	0.557100	0.697600	0.029423
C21	C	0.711100	0.113000	0.181000	-0.171552
C22	C	0.635400	0.549800	0.835800	0.375026
C23	C	0.587200	0.066100	0.393500	0.660494
C24	C	0.562200	0.609900	0.772700	-0.171552
C25	C	0.699600	0.382300	0.749600	0.029423
C26	C	0.664800	0.002300	0.148300	0.375026
C27	C	0.562000	0.935700	0.274000	0.029423
C28	C	0.627300	0.383900	0.605500	0.660494
C29	C	0.085600	0.585000	0.806500	-0.171552
C30	C	0.184300	0.367700	0.738400	0.029423
C31	C	0.110700	0.455000	0.691800	-0.118565
C32	C	0.200400	0.064900	0.175200	-0.171552
C33	C	0.131100	0.056300	0.314500	-0.118565
C34	C	0.062600	0.942900	0.302400	0.029423
C35	C	0.211100	0.387000	0.819000	-0.171552
C36	C	0.135400	0.950200	0.164200	0.375026
C37	C	0.087200	0.433900	0.606500	0.660494
C38	C	0.062200	0.890100	0.227300	-0.171552
C39	C	0.199600	0.117700	0.250400	0.029423
C40	C	0.164800	0.497700	0.851700	0.375026
C41	C	0.062000	0.564300	0.726000	0.029423
C42	C	0.127300	0.116100	0.394500	0.660494
C43	C	0.414400	0.415000	0.306500	-0.171552
C44	C	0.315700	0.632300	0.238400	0.029423
C45	C	0.389300	0.545000	0.191800	-0.118565
C46	C	0.299600	0.935100	0.675200	-0.171552
C47	C	0.368900	0.943700	0.814500	-0.118565
C48	C	0.437400	0.057100	0.802400	0.029423
C49	C	0.288900	0.613000	0.319000	-0.171552
C50	C	0.364600	0.049800	0.664200	0.375026
C51	C	0.412800	0.566100	0.106500	0.660494
C52	C	0.437800	0.109900	0.727300	-0.171552
C53	C	0.300400	0.882300	0.750400	0.029423
C54	C	0.335200	0.502300	0.351700	0.375026
C55	C	0.438000	0.435700	0.226000	0.029423
C56	C	0.372700	0.883900	0.894500	0.660494
N1	N	0.801200	0.019400	0.564400	-0.548893
N2	N	0.856400	0.391700	0.412600	-0.548893
N3	N	0.698800	0.980600	0.064400	-0.548893
N4	N	0.643600	0.608300	0.912600	-0.548893
N5	N	0.198800	0.519400	0.935600	-0.548893
N6	N	0.143600	0.891700	0.087400	-0.548893
N7	N	0.301200	0.480600	0.435600	-0.548893
N8	N	0.356400	0.108300	0.587400	-0.548893
O1	O	0.866400	0.832200	0.923300	-0.576441
O2	O	0.977200	0.013500	0.938100	-0.503803
O3	O	0.822700	0.723100	0.102100	-0.576441
O4	O	0.917500	0.555400	0.046400	-0.503803
O5	O	0.633600	0.167800	0.423300	-0.576441
O6	O	0.522800	0.986500	0.438100	-0.503803
O7	O	0.677300	0.276900	0.602100	-0.576441
O8	O	0.582500	0.444600	0.546400	-0.503803
O9	O	0.133600	0.332200	0.576700	-0.576441
O10	O	0.022800	0.513500	0.561900	-0.503803
O11	O	0.177300	0.223100	0.397900	-0.576441
O12	O	0.082500	0.055400	0.453600	-0.503803
O13	O	0.366400	0.667800	0.076700	-0.576441
O14	O	0.477200	0.486500	0.061900	-0.503803
O15	O	0.322700	0.776900	0.897900	-0.576441
O16	O	0.417500	0.944600	0.953600	-0.503803
