data_SATBEW_clean_PM
_symmetry_space_group_name_H-M	'P1'
_cell_length_a	13.697000
_cell_length_b	20.648200
_cell_length_c	20.648200
_cell_angle_alpha	102.280799
_cell_angle_beta	90.000000
_cell_angle_gamma	90.000000
_symmetry_Int_Tables_number 1

loop_
_symmetry_equiv_pos_as_xyz
'x,y,z'

loop_
_atom_site_label
_atom_site_type_symbol
_atom_site_fract_x
_atom_site_fract_y
_atom_site_fract_z
_atom_site_charge
Cu1	Cu	0.169320	0.725890	0.615550	0.269429
Cu2	Cu	0.176010	0.618990	0.746730	0.311866
Cu3	Cu	0.169320	0.774110	0.884450	0.269429
Cu4	Cu	0.176010	0.881010	0.753270	0.311866
Cu5	Cu	0.330680	0.384450	0.274110	0.269429
Cu6	Cu	0.323990	0.253270	0.381010	0.311866
Cu7	Cu	0.330680	0.115550	0.225890	0.269429
Cu8	Cu	0.323990	0.246730	0.118990	0.311866
Cu9	Cu	0.830680	0.274110	0.384450	0.269429
Cu10	Cu	0.823990	0.381010	0.253270	0.311866
Cu11	Cu	0.830680	0.225890	0.115550	0.269429
Cu12	Cu	0.823990	0.118990	0.246730	0.311866
Cu13	Cu	0.669320	0.615550	0.725890	0.269429
Cu14	Cu	0.676010	0.746730	0.618990	0.311866
Cu15	Cu	0.669320	0.884450	0.774110	0.269429
Cu16	Cu	0.676010	0.753270	0.881010	0.311866
H1	H	0.829600	0.056800	0.363200	0.082839
H2	H	0.735400	0.997300	0.419300	0.129788
H3	H	0.514700	0.012100	0.296500	0.129788
H4	H	0.617900	0.070000	0.242000	0.082839
H5	H	0.470900	0.851200	0.575800	0.129788
H6	H	0.371900	0.788200	0.627800	0.082422
H7	H	0.175600	0.775700	0.490100	0.082422
H8	H	0.266900	0.839200	0.435000	0.129788
H9	H	0.088600	0.476600	0.735400	0.082839
H10	H	0.951200	0.421500	0.690100	0.129788
H11	H	0.909500	0.562200	0.590200	0.129788
H12	H	0.037000	0.619000	0.644800	0.082839
H13	H	0.829600	0.443200	0.136800	0.082839
H14	H	0.735400	0.502700	0.080700	0.129788
H15	H	0.514700	0.487900	0.203500	0.129788
H16	H	0.617900	0.430000	0.258000	0.082839
H17	H	0.470900	0.648800	0.924200	0.129788
H18	H	0.371900	0.711800	0.872200	0.082422
H19	H	0.175600	0.724300	0.009900	0.082422
H20	H	0.266900	0.660800	0.065000	0.129788
H21	H	0.088600	0.023400	0.764600	0.082839
H22	H	0.951200	0.078500	0.809900	0.129788
H23	H	0.909500	0.937800	0.909800	0.129788
H24	H	0.037000	0.881000	0.855200	0.082839
H25	H	0.670400	0.636800	0.943200	0.082839
H26	H	0.764600	0.580700	0.002700	0.129788
H27	H	0.985300	0.703500	0.987900	0.129788
H28	H	0.882100	0.758000	0.930000	0.082839
H29	H	0.029100	0.424200	0.148800	0.129788
H30	H	0.128100	0.372200	0.211800	0.082422
H31	H	0.324400	0.509900	0.224300	0.082422
H32	H	0.233100	0.565000	0.160800	0.129788
H33	H	0.411400	0.264600	0.523400	0.082839
H34	H	0.548800	0.309900	0.578500	0.129788
H35	H	0.590500	0.409800	0.437800	0.129788
H36	H	0.463000	0.355200	0.381000	0.082839
H37	H	0.670400	0.863200	0.556800	0.082839
H38	H	0.764600	0.919300	0.497300	0.129788
H39	H	0.985300	0.796500	0.512100	0.129788
H40	H	0.882100	0.742000	0.570000	0.082839
H41	H	0.029100	0.075800	0.351200	0.129788
H42	H	0.128100	0.127800	0.288200	0.082422
H43	H	0.324400	0.990100	0.275700	0.082422
H44	H	0.233100	0.935000	0.339200	0.129788
H45	H	0.411400	0.235400	0.976600	0.082839
H46	H	0.548800	0.190100	0.921500	0.129788
H47	H	0.590500	0.090200	0.062200	0.129788
H48	H	0.463000	0.144800	0.119000	0.082839
H49	H	0.170400	0.943200	0.636800	0.082839
H50	H	0.264600	0.002700	0.580700	0.129788
H51	H	0.485300	0.987900	0.703500	0.129788
H52	H	0.382100	0.930000	0.758000	0.082839
H53	H	0.529100	0.148800	0.424200	0.129788
H54	H	0.628100	0.211800	0.372200	0.082422
H55	H	0.824400	0.224300	0.509900	0.082422
H56	H	0.733100	0.160800	0.565000	0.129788
H57	H	0.911400	0.523400	0.264600	0.082839
H58	H	0.048800	0.578500	0.309900	0.129788
H59	H	0.090500	0.437800	0.409800	0.129788
H60	H	0.963000	0.381000	0.355200	0.082839
H61	H	0.170400	0.556800	0.863200	0.082839
H62	H	0.264600	0.497300	0.919300	0.129788
H63	H	0.485300	0.512100	0.796500	0.129788
H64	H	0.382100	0.570000	0.742000	0.082839
H65	H	0.529100	0.351200	0.075800	0.129788
H66	H	0.628100	0.288200	0.127800	0.082422
H67	H	0.824400	0.275700	0.990100	0.082422
H68	H	0.733100	0.339200	0.935000	0.129788
H69	H	0.911400	0.976600	0.235400	0.082839
H70	H	0.048800	0.921500	0.190100	0.129788
H71	H	0.090500	0.062200	0.090200	0.129788
H72	H	0.963000	0.119000	0.144800	0.082839
H73	H	0.329600	0.363200	0.056800	0.082839
H74	H	0.235400	0.419300	0.997300	0.129788
H75	H	0.014700	0.296500	0.012100	0.129788
H76	H	0.117900	0.242000	0.070000	0.082839
H77	H	0.970900	0.575800	0.851200	0.129788
H78	H	0.871900	0.627800	0.788200	0.082422
H79	H	0.675600	0.490100	0.775700	0.082422
H80	H	0.766900	0.435000	0.839200	0.129788
H81	H	0.588600	0.735400	0.476600	0.082839
H82	H	0.451200	0.690100	0.421500	0.129788
H83	H	0.409500	0.590200	0.562200	0.129788
H84	H	0.537000	0.644800	0.619000	0.082839
H85	H	0.329600	0.136800	0.443200	0.082839
H86	H	0.235400	0.080700	0.502700	0.129788
H87	H	0.014700	0.203500	0.487900	0.129788
H88	H	0.117900	0.258000	0.430000	0.082839
H89	H	0.970900	0.924200	0.648800	0.129788
H90	H	0.871900	0.872200	0.711800	0.082422
H91	H	0.675600	0.009900	0.724300	0.082422
H92	H	0.766900	0.065000	0.660800	0.129788
H93	H	0.588600	0.764600	0.023400	0.082839
H94	H	0.451200	0.809900	0.078500	0.129788
H95	H	0.409500	0.909800	0.937800	0.129788
H96	H	0.537000	0.855200	0.881000	0.082839
W1	W	0.170960	0.750000	0.750000	0.592449
W2	W	0.329040	0.250000	0.250000	0.592449
W3	W	0.829040	0.250000	0.250000	0.592449
W4	W	0.670960	0.750000	0.750000	0.592449
C1	C	0.765700	0.047210	0.349190	0.143683
C2	C	0.709500	0.012060	0.383340	-0.151391
C3	C	0.612100	0.997760	0.364240	0.049516
C4	C	0.578700	0.020110	0.310890	-0.151391
C5	C	0.641400	0.055000	0.278400	0.143683
C6	C	0.548800	0.959870	0.401130	0.322234
C7	C	0.441200	0.894360	0.464440	0.322234
C8	C	0.379400	0.852850	0.499550	0.049516
C9	C	0.410600	0.836680	0.557720	-0.151616
C10	C	0.351000	0.798820	0.588580	0.150105
C11	C	0.235600	0.791630	0.507770	0.150105
C12	C	0.289900	0.829500	0.474300	-0.151616
C13	C	0.050900	0.495200	0.706600	0.143683
C14	C	0.969300	0.461000	0.678800	-0.151391
C15	C	0.915700	0.486380	0.634620	0.049516
C16	C	0.943800	0.544500	0.621100	-0.151391
C17	C	0.021800	0.577500	0.652500	0.143683
C18	C	0.826000	0.451900	0.603500	0.322234
C19	C	0.765700	0.452790	0.150810	0.143683
C20	C	0.709500	0.487940	0.116660	-0.151391
C21	C	0.612100	0.502240	0.135760	0.049516
C22	C	0.578700	0.479890	0.189110	-0.151391
C23	C	0.641400	0.445000	0.221600	0.143683
C24	C	0.548800	0.540130	0.098870	0.322234
C25	C	0.441200	0.605640	0.035560	0.322234
C26	C	0.379400	0.647150	0.000450	0.049516
C27	C	0.410600	0.663320	0.942280	-0.151616
C28	C	0.351000	0.701180	0.911420	0.150105
C29	C	0.235600	0.708370	0.992230	0.150105
C30	C	0.289900	0.670500	0.025700	-0.151616
C31	C	0.050900	0.004800	0.793400	0.143683
C32	C	0.969300	0.039000	0.821200	-0.151391
C33	C	0.915700	0.013620	0.865380	0.049516
C34	C	0.943800	0.955500	0.878900	-0.151391
C35	C	0.021800	0.922500	0.847500	0.143683
C36	C	0.826000	0.048100	0.896500	0.322234
C37	C	0.734300	0.650810	0.952790	0.143683
C38	C	0.790500	0.616660	0.987940	-0.151391
C39	C	0.887900	0.635760	0.002240	0.049516
C40	C	0.921300	0.689110	0.979890	-0.151391
C41	C	0.858600	0.721600	0.945000	0.143683
C42	C	0.951200	0.598870	0.040130	0.322234
C43	C	0.058800	0.535560	0.105640	0.322234
C44	C	0.120600	0.500450	0.147150	0.049516
C45	C	0.089400	0.442280	0.163320	-0.151616
C46	C	0.149000	0.411420	0.201180	0.150105
C47	C	0.264400	0.492230	0.208370	0.150105
C48	C	0.210100	0.525700	0.170500	-0.151616
C49	C	0.449100	0.293400	0.504800	0.143683
C50	C	0.530700	0.321200	0.539000	-0.151391
C51	C	0.584300	0.365380	0.513620	0.049516
C52	C	0.556200	0.378900	0.455500	-0.151391
C53	C	0.478200	0.347500	0.422500	0.143683
C54	C	0.674000	0.396500	0.548100	0.322234
C55	C	0.734300	0.849190	0.547210	0.143683
C56	C	0.790500	0.883340	0.512060	-0.151391
C57	C	0.887900	0.864240	0.497760	0.049516
C58	C	0.921300	0.810890	0.520110	-0.151391
C59	C	0.858600	0.778400	0.555000	0.143683
C60	C	0.951200	0.901130	0.459870	0.322234
C61	C	0.058800	0.964440	0.394360	0.322234
C62	C	0.120600	0.999550	0.352850	0.049516
C63	C	0.089400	0.057720	0.336680	-0.151616
C64	C	0.149000	0.088580	0.298820	0.150105
C65	C	0.264400	0.007770	0.291630	0.150105
C66	C	0.210100	0.974300	0.329500	-0.151616
C67	C	0.449100	0.206600	0.995200	0.143683
C68	C	0.530700	0.178800	0.961000	-0.151391
C69	C	0.584300	0.134620	0.986380	0.049516
C70	C	0.556200	0.121100	0.044500	-0.151391
C71	C	0.478200	0.152500	0.077500	0.143683
C72	C	0.674000	0.103500	0.951900	0.322234
C73	C	0.234300	0.952790	0.650810	0.143683
C74	C	0.290500	0.987940	0.616660	-0.151391
C75	C	0.387900	0.002240	0.635760	0.049516
C76	C	0.421300	0.979890	0.689110	-0.151391
C77	C	0.358600	0.945000	0.721600	0.143683
C78	C	0.451200	0.040130	0.598870	0.322234
C79	C	0.558800	0.105640	0.535560	0.322234
C80	C	0.620600	0.147150	0.500450	0.049516
C81	C	0.589400	0.163320	0.442280	-0.151616
C82	C	0.649000	0.201180	0.411420	0.150105
C83	C	0.764400	0.208370	0.492230	0.150105
C84	C	0.710100	0.170500	0.525700	-0.151616
C85	C	0.949100	0.504800	0.293400	0.143683
C86	C	0.030700	0.539000	0.321200	-0.151391
C87	C	0.084300	0.513620	0.365380	0.049516
C88	C	0.056200	0.455500	0.378900	-0.151391
C89	C	0.978200	0.422500	0.347500	0.143683
C90	C	0.174000	0.548100	0.396500	0.322234
C91	C	0.234300	0.547210	0.849190	0.143683
C92	C	0.290500	0.512060	0.883340	-0.151391
C93	C	0.387900	0.497760	0.864240	0.049516
C94	C	0.421300	0.520110	0.810890	-0.151391
C95	C	0.358600	0.555000	0.778400	0.143683
C96	C	0.451200	0.459870	0.901130	0.322234
C97	C	0.558800	0.394360	0.964440	0.322234
C98	C	0.620600	0.352850	0.999550	0.049516
C99	C	0.589400	0.336680	0.057720	-0.151616
C100	C	0.649000	0.298820	0.088580	0.150105
C101	C	0.764400	0.291630	0.007770	0.150105
C102	C	0.710100	0.329500	0.974300	-0.151616
C103	C	0.949100	0.995200	0.206600	0.143683
C104	C	0.030700	0.961000	0.178800	-0.151391
C105	C	0.084300	0.986380	0.134620	0.049516
C106	C	0.056200	0.044500	0.121100	-0.151391
C107	C	0.978200	0.077500	0.152500	0.143683
C108	C	0.174000	0.951900	0.103500	0.322234
C109	C	0.265700	0.349190	0.047210	0.143683
C110	C	0.209500	0.383340	0.012060	-0.151391
C111	C	0.112100	0.364240	0.997760	0.049516
C112	C	0.078700	0.310890	0.020110	-0.151391
C113	C	0.141400	0.278400	0.055000	0.143683
C114	C	0.048800	0.401130	0.959870	0.322234
C115	C	0.941200	0.464440	0.894360	0.322234
C116	C	0.879400	0.499550	0.852850	0.049516
C117	C	0.910600	0.557720	0.836680	-0.151616
C118	C	0.851000	0.588580	0.798820	0.150105
C119	C	0.735600	0.507770	0.791630	0.150105
C120	C	0.789900	0.474300	0.829500	-0.151616
C121	C	0.550900	0.706600	0.495200	0.143683
C122	C	0.469300	0.678800	0.461000	-0.151391
C123	C	0.415700	0.634620	0.486380	0.049516
C124	C	0.443800	0.621100	0.544500	-0.151391
C125	C	0.521800	0.652500	0.577500	0.143683
C126	C	0.326000	0.603500	0.451900	0.322234
C127	C	0.265700	0.150810	0.452790	0.143683
C128	C	0.209500	0.116660	0.487940	-0.151391
C129	C	0.112100	0.135760	0.502240	0.049516
C130	C	0.078700	0.189110	0.479890	-0.151391
C131	C	0.141400	0.221600	0.445000	0.143683
C132	C	0.048800	0.098870	0.540130	0.322234
C133	C	0.941200	0.035560	0.605640	0.322234
C134	C	0.879400	0.000450	0.647150	0.049516
C135	C	0.910600	0.942280	0.663320	-0.151616
C136	C	0.851000	0.911420	0.701180	0.150105
C137	C	0.735600	0.992230	0.708370	0.150105
C138	C	0.789900	0.025700	0.670500	-0.151616
C139	C	0.550900	0.793400	0.004800	0.143683
C140	C	0.469300	0.821200	0.039000	-0.151391
C141	C	0.415700	0.865380	0.013620	0.049516
C142	C	0.443800	0.878900	0.955500	-0.151391
C143	C	0.521800	0.847500	0.922500	0.143683
C144	C	0.326000	0.896500	0.048100	0.322234
S1	S	0.264160	0.675730	0.682810	-0.297972
S2	S	0.077770	0.801620	0.688340	-0.297972
S3	S	0.264160	0.824270	0.817190	-0.297972
S4	S	0.077770	0.698380	0.811660	-0.297972
S5	S	0.235840	0.317190	0.324270	-0.297972
S6	S	0.422230	0.311660	0.198380	-0.297972
S7	S	0.235840	0.182810	0.175730	-0.297972
S8	S	0.422230	0.188340	0.301620	-0.297972
S9	S	0.735840	0.324270	0.317190	-0.297972
S10	S	0.922230	0.198380	0.311660	-0.297972
S11	S	0.735840	0.175730	0.182810	-0.297972
S12	S	0.922230	0.301620	0.188340	-0.297972
S13	S	0.764160	0.682810	0.675730	-0.297972
S14	S	0.577770	0.688340	0.801620	-0.297972
S15	S	0.764160	0.817190	0.824270	-0.297972
S16	S	0.577770	0.811660	0.698380	-0.297972
Br1	Br	0.071860	0.665090	0.525210	-0.461998
Br2	Br	0.071860	0.834910	0.974790	-0.461998
Br3	Br	0.428140	0.474790	0.334910	-0.461998
Br4	Br	0.428140	0.025210	0.165090	-0.461998
Br5	Br	0.928140	0.334910	0.474790	-0.461998
Br6	Br	0.928140	0.165090	0.025210	-0.461998
Br7	Br	0.571860	0.525210	0.665090	-0.461998
Br8	Br	0.571860	0.974790	0.834910	-0.461998
N1	N	0.734300	0.068320	0.296920	-0.238462
N2	N	0.584600	0.944890	0.455710	-0.244333
N3	N	0.529000	0.911080	0.488920	-0.244333
N4	N	0.403300	0.912920	0.412880	-0.244333
N5	N	0.458700	0.947810	0.379790	-0.244333
N6	N	0.264000	0.776680	0.563940	-0.232978
N7	N	0.078200	0.552180	0.694620	-0.238462
N8	N	0.790500	0.402260	0.627220	-0.244333
N9	N	0.789500	0.476100	0.553300	-0.244333
N10	N	0.734300	0.431680	0.203080	-0.238462
N11	N	0.584600	0.555110	0.044290	-0.244333
N12	N	0.529000	0.588920	0.011080	-0.244333
N13	N	0.403300	0.587080	0.087120	-0.244333
N14	N	0.458700	0.552190	0.120210	-0.244333
N15	N	0.264000	0.723320	0.936060	-0.232978
N16	N	0.078200	0.947820	0.805380	-0.238462
N17	N	0.790500	0.097740	0.872780	-0.244333
N18	N	0.789500	0.023900	0.946700	-0.244333
N19	N	0.765700	0.703080	0.931680	-0.238462
N20	N	0.915400	0.544290	0.055110	-0.244333
N21	N	0.971000	0.511080	0.088920	-0.244333
N22	N	0.096700	0.587120	0.087080	-0.244333
N23	N	0.041300	0.620210	0.052190	-0.244333
N24	N	0.236000	0.436060	0.223320	-0.232978
N25	N	0.421800	0.305380	0.447820	-0.238462
N26	N	0.709500	0.372780	0.597740	-0.244333
N27	N	0.710500	0.446700	0.523900	-0.244333
N28	N	0.765700	0.796920	0.568320	-0.238462
N29	N	0.915400	0.955710	0.444890	-0.244333
N30	N	0.971000	0.988920	0.411080	-0.244333
N31	N	0.096700	0.912880	0.412920	-0.244333
N32	N	0.041300	0.879790	0.447810	-0.244333
N33	N	0.236000	0.063940	0.276680	-0.232978
N34	N	0.421800	0.194620	0.052180	-0.238462
N35	N	0.709500	0.127220	0.902260	-0.244333
N36	N	0.710500	0.053300	0.976100	-0.244333
N37	N	0.265700	0.931680	0.703080	-0.238462
N38	N	0.415400	0.055110	0.544290	-0.244333
N39	N	0.471000	0.088920	0.511080	-0.244333
N40	N	0.596700	0.087080	0.587120	-0.244333
N41	N	0.541300	0.052190	0.620210	-0.244333
N42	N	0.736000	0.223320	0.436060	-0.232978
N43	N	0.921800	0.447820	0.305380	-0.238462
N44	N	0.209500	0.597740	0.372780	-0.244333
N45	N	0.210500	0.523900	0.446700	-0.244333
N46	N	0.265700	0.568320	0.796920	-0.238462
N47	N	0.415400	0.444890	0.955710	-0.244333
N48	N	0.471000	0.411080	0.988920	-0.244333
N49	N	0.596700	0.412920	0.912880	-0.244333
N50	N	0.541300	0.447810	0.879790	-0.244333
N51	N	0.736000	0.276680	0.063940	-0.232978
N52	N	0.921800	0.052180	0.194620	-0.238462
N53	N	0.209500	0.902260	0.127220	-0.244333
N54	N	0.210500	0.976100	0.053300	-0.244333
N55	N	0.234300	0.296920	0.068320	-0.238462
N56	N	0.084600	0.455710	0.944890	-0.244333
N57	N	0.029000	0.488920	0.911080	-0.244333
N58	N	0.903300	0.412880	0.912920	-0.244333
N59	N	0.958700	0.379790	0.947810	-0.244333
N60	N	0.764000	0.563940	0.776680	-0.232978
N61	N	0.578200	0.694620	0.552180	-0.238462
N62	N	0.290500	0.627220	0.402260	-0.244333
N63	N	0.289500	0.553300	0.476100	-0.244333
N64	N	0.234300	0.203080	0.431680	-0.238462
N65	N	0.084600	0.044290	0.555110	-0.244333
N66	N	0.029000	0.011080	0.588920	-0.244333
N67	N	0.903300	0.087120	0.587080	-0.244333
N68	N	0.958700	0.120210	0.552190	-0.244333
N69	N	0.764000	0.936060	0.723320	-0.232978
N70	N	0.578200	0.805380	0.947820	-0.238462
N71	N	0.290500	0.872780	0.097740	-0.244333
N72	N	0.289500	0.946700	0.023900	-0.244333
