data_SETSIV_clean_PM
_symmetry_space_group_name_H-M	'P1'
_cell_length_a	14.458000
_cell_length_b	16.915300
_cell_length_c	16.915300
_cell_angle_alpha	119.999999
_cell_angle_beta	90.000000
_cell_angle_gamma	90.000000
_symmetry_Int_Tables_number 1

loop_
_symmetry_equiv_pos_as_xyz
'x,y,z'

loop_
_atom_site_label
_atom_site_type_symbol
_atom_site_fract_x
_atom_site_fract_y
_atom_site_fract_z
_atom_site_charge
Zn1	Zn	0.000000	0.000000	0.652650	0.863604
Zn2	Zn	0.000000	0.652650	0.000000	0.863604
Zn3	Zn	0.000000	0.347350	0.347350	0.863604
Cr1	Cr	0.500000	0.113410	0.000000	1.559588
Cr2	Cr	0.500000	0.886590	0.886590	1.559588
Cr3	Cr	0.500000	0.000000	0.113410	1.559588
H1	H	0.712600	0.130400	0.829400	0.132533
H2	H	0.846000	0.126300	0.758100	0.086192
H3	H	0.712600	0.699000	0.869600	0.132533
H4	H	0.846000	0.631800	0.873700	0.086192
H5	H	0.712600	0.170600	0.301000	0.132533
H6	H	0.846000	0.241900	0.368200	0.086192
H7	H	0.287400	0.130400	0.829400	0.132533
H8	H	0.154000	0.126300	0.758100	0.086192
H9	H	0.287400	0.699000	0.869600	0.132533
H10	H	0.154000	0.631800	0.873700	0.086192
H11	H	0.287400	0.170600	0.301000	0.132533
H12	H	0.154000	0.241900	0.368200	0.086192
H13	H	0.287400	0.301000	0.170600	0.132533
H14	H	0.154000	0.368200	0.241900	0.086192
H15	H	0.287400	0.829400	0.130400	0.132533
H16	H	0.154000	0.758100	0.126300	0.086192
H17	H	0.287400	0.869600	0.699000	0.132533
H18	H	0.154000	0.873700	0.631800	0.086192
H19	H	0.712600	0.301000	0.170600	0.132533
H20	H	0.846000	0.368200	0.241900	0.086192
H21	H	0.712600	0.829400	0.130400	0.132533
H22	H	0.846000	0.758100	0.126300	0.086192
H23	H	0.712600	0.869600	0.699000	0.132533
H24	H	0.846000	0.873700	0.631800	0.086192
H25	H	0.000000	0.184500	0.544000	0.103800
H26	H	0.000000	0.359500	0.815500	0.103800
H27	H	0.000000	0.456000	0.640500	0.103800
H28	H	0.000000	0.640500	0.456000	0.103800
H29	H	0.000000	0.544000	0.184500	0.103800
H30	H	0.000000	0.815500	0.359500	0.103800
C1	C	0.747800	0.076500	0.801300	-0.133255
C2	C	0.827200	0.073600	0.759000	0.164145
C3	C	0.747800	0.724800	0.923500	-0.133255
C4	C	0.827200	0.685400	0.926400	0.164145
C5	C	0.747800	0.198700	0.275200	-0.133255
C6	C	0.827200	0.241000	0.314600	0.164145
C7	C	0.252200	0.076500	0.801300	-0.133255
C8	C	0.172800	0.073600	0.759000	0.164145
C9	C	0.252200	0.724800	0.923500	-0.133255
C10	C	0.172800	0.685400	0.926400	0.164145
C11	C	0.252200	0.198700	0.275200	-0.133255
C12	C	0.172800	0.241000	0.314600	0.164145
C13	C	0.252200	0.275200	0.198700	-0.133255
C14	C	0.172800	0.314600	0.241000	0.164145
C15	C	0.252200	0.801300	0.076500	-0.133255
C16	C	0.172800	0.759000	0.073600	0.164145
C17	C	0.252200	0.923500	0.724800	-0.133255
C18	C	0.172800	0.926400	0.685400	0.164145
C19	C	0.747800	0.275200	0.198700	-0.133255
C20	C	0.827200	0.314600	0.241000	0.164145
C21	C	0.747800	0.801300	0.076500	-0.133255
C22	C	0.827200	0.759000	0.073600	0.164145
C23	C	0.747800	0.923500	0.724800	-0.133255
C24	C	0.827200	0.926400	0.685400	0.164145
C25	C	0.000000	0.181380	0.701180	0.654927
C26	C	0.000000	0.259700	0.682250	-0.167956
C27	C	0.000000	0.244550	0.593500	0.007292
C28	C	0.000000	0.519800	0.818620	0.654927
C29	C	0.000000	0.422550	0.740300	-0.167956
C30	C	0.000000	0.348950	0.755450	0.007292
C31	C	0.000000	0.298820	0.480200	0.654927
C32	C	0.000000	0.317750	0.577450	-0.167956
C33	C	0.000000	0.406500	0.651050	0.007292
C34	C	0.000000	0.480200	0.298820	0.654927
C35	C	0.000000	0.577450	0.317750	-0.167956
C36	C	0.000000	0.651050	0.406500	0.007292
C37	C	0.000000	0.701180	0.181380	0.654927
C38	C	0.000000	0.682250	0.259700	-0.167956
C39	C	0.000000	0.593500	0.244550	0.007292
C40	C	0.000000	0.818620	0.519800	0.654927
C41	C	0.000000	0.740300	0.422550	-0.167956
C42	C	0.000000	0.755450	0.348950	0.007292
C43	C	0.630500	0.000000	0.851710	0.694644
C44	C	0.717800	0.000000	0.803320	-0.016474
C45	C	0.630500	0.851710	0.000000	0.694644
C46	C	0.717800	0.803320	0.000000	-0.016474
C47	C	0.630500	0.148290	0.148290	0.694644
C48	C	0.717800	0.196680	0.196680	-0.016474
C49	C	0.369500	0.000000	0.851710	0.694644
C50	C	0.282200	0.000000	0.803320	-0.016474
C51	C	0.369500	0.851710	0.000000	0.694644
C52	C	0.282200	0.803320	0.000000	-0.016474
C53	C	0.369500	0.148290	0.148290	0.694644
C54	C	0.282200	0.196680	0.196680	-0.016474
N1	N	0.880650	0.000000	0.718330	-0.334457
N2	N	0.880650	0.718330	0.000000	-0.334457
N3	N	0.880650	0.281670	0.281670	-0.334457
N4	N	0.119350	0.000000	0.718330	-0.334457
N5	N	0.119350	0.718330	0.000000	-0.334457
N6	N	0.119350	0.281670	0.281670	-0.334457
O1	O	0.598650	0.076400	0.907700	-0.641691
O2	O	0.598650	0.831300	0.923600	-0.641691
O3	O	0.598650	0.092300	0.168700	-0.641691
O4	O	0.401350	0.076400	0.907700	-0.641691
O5	O	0.401350	0.831300	0.923600	-0.641691
O6	O	0.401350	0.092300	0.168700	-0.641691
O7	O	0.401350	0.168700	0.092300	-0.641691
O8	O	0.401350	0.907700	0.076400	-0.641691
O9	O	0.401350	0.923600	0.831300	-0.641691
O10	O	0.598650	0.168700	0.092300	-0.641691
O11	O	0.598650	0.907700	0.076400	-0.641691
O12	O	0.598650	0.923600	0.831300	-0.641691
O13	O	0.500000	0.000000	0.000000	-1.070072
O14	O	0.000000	0.197220	0.780120	-0.586686
O15	O	0.000000	0.102660	0.630270	-0.604188
O16	O	0.000000	0.582900	0.802780	-0.586686
O17	O	0.000000	0.527610	0.897340	-0.604188
O18	O	0.000000	0.219880	0.417100	-0.586686
O19	O	0.000000	0.369730	0.472390	-0.604188
O20	O	0.000000	0.417100	0.219880	-0.586686
O21	O	0.000000	0.472390	0.369730	-0.604188
O22	O	0.000000	0.780120	0.197220	-0.586686
O23	O	0.000000	0.630270	0.102660	-0.604188
O24	O	0.000000	0.802780	0.582900	-0.586686
O25	O	0.000000	0.897340	0.527610	-0.604188
