data_SOTTUR_clean_PM
_symmetry_space_group_name_H-M	'P1'
_cell_length_a	7.133000
_cell_length_b	10.519000
_cell_length_c	11.519000
_cell_angle_alpha	74.033997
_cell_angle_beta	83.173996
_cell_angle_gamma	72.584997
_symmetry_Int_Tables_number 1

loop_
_symmetry_equiv_pos_as_xyz
'x,y,z'

loop_
_atom_site_label
_atom_site_type_symbol
_atom_site_fract_x
_atom_site_fract_y
_atom_site_fract_z
_atom_site_charge
Sr1	Sr	0.779220	0.400070	0.540960	1.704055
Sr2	Sr	0.220780	0.599930	0.459040	1.704055
P1	P	0.287670	0.322010	0.676690	1.477201
P2	P	0.822730	0.258260	0.316390	1.484956
P3	P	0.712330	0.677990	0.323310	1.477201
P4	P	0.177270	0.741740	0.683610	1.484956
H1	H	0.545900	0.151300	0.532500	0.230100
H2	H	0.879500	0.515300	0.145900	0.230100
H3	H	0.238600	0.034700	0.557000	0.114697
H4	H	0.224000	0.188200	0.487900	0.114697
H5	H	0.722200	0.944100	0.651400	0.114697
H6	H	0.541300	0.886200	0.657300	0.114697
H7	H	0.304400	0.088200	0.731600	0.162144
H8	H	0.508900	0.106200	0.747200	0.162144
H9	H	0.784600	0.482900	0.932500	0.114697
H10	H	0.662000	0.601400	0.992000	0.114697
H11	H	0.127800	0.314500	0.160900	0.114697
H12	H	0.069900	0.307200	0.036000	0.114697
H13	H	0.607800	0.442100	0.185400	0.160950
H14	H	0.706000	0.324800	0.119800	0.160950
H15	H	0.454100	0.848700	0.467500	0.230100
H16	H	0.120500	0.484700	0.854100	0.230100
H17	H	0.761400	0.965300	0.443000	0.114697
H18	H	0.776000	0.811800	0.512100	0.114697
H19	H	0.277800	0.055900	0.348600	0.114697
H20	H	0.458700	0.113800	0.342700	0.114697
H21	H	0.695600	0.911800	0.268400	0.162144
H22	H	0.491100	0.893800	0.252800	0.162144
H23	H	0.215400	0.517100	0.067500	0.114697
H24	H	0.338000	0.398600	0.008000	0.114697
H25	H	0.872200	0.685500	0.839100	0.114697
H26	H	0.930100	0.692800	0.964000	0.114697
H27	H	0.392200	0.557900	0.814600	0.160950
H28	H	0.294000	0.675200	0.880200	0.160950
C1	C	0.312300	0.095700	0.507800	-0.105314
C2	C	0.612200	0.948400	0.606900	-0.105314
C3	C	0.401000	0.136400	0.693100	-0.535190
C4	C	0.793100	0.542800	0.981200	-0.105314
C5	C	0.074600	0.369400	0.083400	-0.105314
C6	C	0.731600	0.377500	0.170300	-0.532541
C7	C	0.687700	0.904300	0.492200	-0.105314
C8	C	0.387800	0.051600	0.393100	-0.105314
C9	C	0.599000	0.863600	0.306900	-0.535190
C10	C	0.206900	0.457200	0.018800	-0.105314
C11	C	0.925400	0.630600	0.916600	-0.105314
C12	C	0.268400	0.622500	0.829700	-0.532541
N1	N	0.478000	0.093000	0.578300	0.159038
N2	N	0.871000	0.457000	0.102500	0.158617
N3	N	0.522000	0.907000	0.421700	0.159038
N4	N	0.129000	0.543000	0.897500	0.158617
O1	O	0.222300	0.323900	0.807500	-0.775163
O2	O	0.119700	0.372200	0.592000	-1.000195
O3	O	0.442500	0.397400	0.624300	-1.000195
O4	O	0.915800	0.119800	0.290900	-0.907259
O5	O	0.962500	0.320000	0.357500	-0.918016
O6	O	0.639400	0.264400	0.400600	-0.918016
O7	O	0.777700	0.676100	0.192500	-0.775163
O8	O	0.880300	0.627800	0.408000	-1.000195
O9	O	0.557500	0.602600	0.375700	-1.000195
O10	O	0.084200	0.880200	0.709100	-0.907259
O11	O	0.037500	0.680000	0.642500	-0.918016
O12	O	0.360600	0.735600	0.599400	-0.918016
