data_SUNJIV_clean_PM
_symmetry_space_group_name_H-M	'P1'
_cell_length_a	9.828300
_cell_length_b	10.436200
_cell_length_c	11.076000
_cell_angle_alpha	76.893999
_cell_angle_beta	76.296000
_cell_angle_gamma	65.999002
_symmetry_Int_Tables_number 1

loop_
_symmetry_equiv_pos_as_xyz
'x,y,z'

loop_
_atom_site_label
_atom_site_type_symbol
_atom_site_fract_x
_atom_site_fract_y
_atom_site_fract_z
_atom_site_charge
Dy1	Dy	0.944930	0.228080	0.822910	2.233623
Dy2	Dy	0.055070	0.771920	0.177090	2.233623
H1	H	0.307800	0.922200	0.506300	0.105050
H2	H	0.455200	0.184900	0.604900	0.105050
H3	H	0.435700	0.414900	0.709000	0.105477
H4	H	0.740000	0.502300	0.423800	0.105477
H5	H	0.600300	0.118200	0.821000	0.105050
H6	H	0.649400	0.859600	0.150100	0.105050
H7	H	0.692200	0.077800	0.493700	0.105050
H8	H	0.544800	0.815100	0.395100	0.105050
H9	H	0.564300	0.585100	0.291000	0.105477
H10	H	0.260000	0.497700	0.576200	0.105477
H11	H	0.399700	0.881800	0.179000	0.105050
H12	H	0.350600	0.140400	0.849900	0.105050
C1	C	0.356900	0.065100	0.567400	-0.137275
C2	C	0.384600	0.953500	0.503900	-0.050719
C3	C	0.473100	0.110600	0.562700	-0.050719
C4	C	0.205400	0.131600	0.645600	0.789900
C5	C	0.608000	0.448600	0.579300	-0.096936
C6	C	0.461500	0.448700	0.625100	-0.060436
C7	C	0.643900	0.501000	0.454400	-0.060436
C8	C	0.723600	0.389300	0.665100	0.640220
C9	C	0.649300	0.986100	0.983000	-0.137275
C10	C	0.560000	0.070800	0.892700	-0.050719
C11	C	0.589500	0.915900	0.089800	-0.050719
C12	C	0.809600	0.976800	0.966900	0.789900
C13	C	0.643100	0.934900	0.432600	-0.137275
C14	C	0.615400	0.046500	0.496100	-0.050719
C15	C	0.526900	0.889400	0.437300	-0.050719
C16	C	0.794600	0.868400	0.354400	0.789900
C17	C	0.392000	0.551400	0.420700	-0.096936
C18	C	0.538500	0.551300	0.374900	-0.060436
C19	C	0.356100	0.499000	0.545600	-0.060436
C20	C	0.276400	0.610700	0.334900	0.640220
C21	C	0.350700	0.013900	0.017000	-0.137275
C22	C	0.440000	0.929200	0.107300	-0.050719
C23	C	0.410500	0.084100	0.910200	-0.050719
C24	C	0.190400	0.023200	0.033100	0.789900
O1	O	0.172340	0.247580	0.681670	-0.748079
O2	O	0.116700	0.064700	0.678170	-0.748079
O3	O	0.685100	0.350000	0.779600	-0.698625
O4	O	0.858000	0.376800	0.623190	-0.698625
O5	O	0.857320	0.047380	0.872300	-0.748079
O6	O	0.884000	0.897700	0.050580	-0.748079
O7	O	0.827660	0.752420	0.318330	-0.748079
O8	O	0.883300	0.935300	0.321830	-0.748079
O9	O	0.314900	0.650000	0.220400	-0.698625
O10	O	0.142000	0.623200	0.376810	-0.698625
O11	O	0.142680	0.952620	0.127700	-0.748079
O12	O	0.116000	0.102300	0.949420	-0.748079
