data_TAGSEB_clean_PM
_symmetry_space_group_name_H-M	'P1'
_cell_length_a	13.118700
_cell_length_b	19.689000
_cell_length_c	23.920000
_cell_angle_alpha	90.000000
_cell_angle_beta	90.000000
_cell_angle_gamma	90.000000
_symmetry_Int_Tables_number 1

loop_
_symmetry_equiv_pos_as_xyz
'x,y,z'

loop_
_atom_site_label
_atom_site_type_symbol
_atom_site_fract_x
_atom_site_fract_y
_atom_site_fract_z
_atom_site_charge
V1	V	0.841950	0.334790	0.539720	1.293023
V2	V	0.662700	0.427820	0.467340	1.343178
V3	V	0.441240	0.377050	0.533720	1.276970
V4	V	0.250010	0.286870	0.468850	0.646619
V5	V	0.078350	0.384300	0.526930	1.260947
V6	V	0.258140	0.433530	0.613170	0.942824
V7	V	0.158050	0.834790	0.460280	1.293023
V8	V	0.337300	0.927820	0.532660	1.343178
V9	V	0.558760	0.877050	0.466280	1.276970
V10	V	0.749990	0.786870	0.531150	0.646619
V11	V	0.921650	0.884300	0.473070	1.260947
V12	V	0.741860	0.933530	0.386830	0.942824
V13	V	0.158050	0.334790	0.039720	1.293023
V14	V	0.337300	0.427820	0.967340	1.343178
V15	V	0.558760	0.377050	0.033720	1.276970
V16	V	0.749990	0.286870	0.968850	0.646619
V17	V	0.921650	0.384300	0.026930	1.260947
V18	V	0.741860	0.433530	0.113170	0.942824
V19	V	0.841950	0.834790	0.960280	1.293023
V20	V	0.662700	0.927820	0.032660	1.343178
V21	V	0.441240	0.877050	0.966280	1.276970
V22	V	0.250010	0.786870	0.031150	0.646619
V23	V	0.078350	0.884300	0.973070	1.260947
V24	V	0.258140	0.933530	0.886830	0.942824
Cu1	Cu	0.860300	0.162080	0.495350	0.539881
Cu2	Cu	0.628350	0.611010	0.451540	0.343073
Cu3	Cu	0.796260	0.099520	0.975820	0.231557
Cu4	Cu	0.139700	0.662080	0.504650	0.539881
Cu5	Cu	0.371650	0.111010	0.548460	0.343073
Cu6	Cu	0.203740	0.599520	0.024180	0.231557
Cu7	Cu	0.139700	0.162080	0.995350	0.539881
Cu8	Cu	0.371650	0.611010	0.951540	0.343073
Cu9	Cu	0.203740	0.099520	0.475820	0.231557
Cu10	Cu	0.860300	0.662080	0.004650	0.539881
Cu11	Cu	0.628350	0.111010	0.048460	0.343073
Cu12	Cu	0.796260	0.599520	0.524180	0.231557
H1	H	0.005800	0.231500	0.420500	0.068272
H2	H	0.093900	0.213300	0.344500	0.117640
H3	H	0.002900	0.021800	0.349400	0.117640
H4	H	0.920100	0.046800	0.428400	0.068272
H5	H	0.167700	0.134900	0.277500	0.080898
H6	H	0.143100	0.057300	0.283000	0.080898
H7	H	0.989000	0.072100	0.234800	0.055173
H8	H	0.006600	0.150800	0.232300	0.055173
H9	H	0.135600	0.056800	0.175900	0.080898
H10	H	0.145500	0.136000	0.171200	0.080898
H11	H	0.010700	0.001500	0.120100	0.117640
H12	H	0.901500	0.001400	0.044200	0.066798
H13	H	0.902300	0.201100	0.044200	0.066798
H14	H	0.017800	0.201000	0.114100	0.117640
H15	H	0.790700	0.024500	0.523400	0.068272
H16	H	0.678500	0.976500	0.588400	0.117640
H17	H	0.588000	0.159800	0.632800	0.117640
H18	H	0.698100	0.204800	0.568700	0.068272
H19	H	0.486000	0.054500	0.661500	0.080898
H20	H	0.538200	0.983500	0.651700	0.080898
H21	H	0.637800	0.081800	0.719800	0.055173
H22	H	0.660300	0.003700	0.719200	0.055173
H23	H	0.481600	0.058300	0.764000	0.080898
H24	H	0.515200	0.981900	0.768100	0.080898
H25	H	0.640400	0.949800	0.839600	0.117640
H26	H	0.743200	0.979000	0.913500	0.066798
H27	H	0.682300	0.169800	0.889600	0.066798
H28	H	0.582800	0.143100	0.815300	0.117640
H29	H	0.691000	0.728400	0.389400	0.068300
H30	H	0.748900	0.756400	0.301500	0.117640
H31	H	0.764200	0.558400	0.269600	0.117640
H32	H	0.713500	0.537100	0.355400	0.068300
H33	H	0.814300	0.723100	0.212900	0.080898
H34	H	0.839500	0.646300	0.201700	0.080898
H35	H	0.638600	0.700700	0.193600	0.055173
H36	H	0.666100	0.624800	0.180400	0.055173
H37	H	0.772700	0.666300	0.105700	0.080898
H38	H	0.725300	0.738400	0.116000	0.080898
H39	H	0.629700	0.567300	0.094300	0.117640
H40	H	0.506000	0.539800	0.032000	0.068300
H41	H	0.477900	0.729400	0.988000	0.068300
H42	H	0.585900	0.762200	0.052200	0.117640
H43	H	0.994200	0.731500	0.579500	0.068272
H44	H	0.906100	0.713300	0.655500	0.117640
H45	H	0.997100	0.521800	0.650600	0.117640
H46	H	0.079900	0.546800	0.571600	0.068272
H47	H	0.832300	0.634900	0.722500	0.080898
H48	H	0.856900	0.557300	0.717000	0.080898
H49	H	0.011000	0.572100	0.765200	0.055173
H50	H	0.993400	0.650800	0.767700	0.055173
H51	H	0.864400	0.556800	0.824100	0.080898
H52	H	0.854500	0.636000	0.828800	0.080898
H53	H	0.989300	0.501500	0.879900	0.117640
H54	H	0.098500	0.501400	0.955800	0.066798
H55	H	0.097700	0.701100	0.955800	0.066798
H56	H	0.982200	0.701000	0.885900	0.117640
H57	H	0.209300	0.524500	0.476600	0.068272
H58	H	0.321500	0.476500	0.411600	0.117640
H59	H	0.412000	0.659800	0.367200	0.117640
H60	H	0.301900	0.704800	0.431300	0.068272
H61	H	0.514000	0.554500	0.338500	0.080898
H62	H	0.461800	0.483500	0.348300	0.080898
H63	H	0.362200	0.581800	0.280200	0.055173
H64	H	0.339700	0.503700	0.280800	0.055173
H65	H	0.518400	0.558300	0.236000	0.080898
H66	H	0.484800	0.481900	0.231900	0.080898
H67	H	0.359600	0.449800	0.160400	0.117640
H68	H	0.256800	0.479000	0.086500	0.066798
H69	H	0.317700	0.669800	0.110400	0.066798
H70	H	0.417200	0.643100	0.184700	0.117640
H71	H	0.309000	0.228400	0.610600	0.068300
H72	H	0.251100	0.256400	0.698500	0.117640
H73	H	0.235800	0.058400	0.730400	0.117640
H74	H	0.286500	0.037100	0.644600	0.068300
H75	H	0.185700	0.223100	0.787100	0.080898
H76	H	0.160500	0.146300	0.798300	0.080898
H77	H	0.361400	0.200700	0.806400	0.055173
H78	H	0.333900	0.124800	0.819600	0.055173
H79	H	0.227300	0.166300	0.894300	0.080898
H80	H	0.274700	0.238400	0.884000	0.080898
H81	H	0.370300	0.067300	0.905700	0.117640
H82	H	0.494000	0.039800	0.968000	0.068300
H83	H	0.522100	0.229400	0.012000	0.068300
H84	H	0.414100	0.262200	0.947800	0.117640
H85	H	0.994200	0.231500	0.920500	0.068272
H86	H	0.906100	0.213300	0.844500	0.117640
H87	H	0.997100	0.021800	0.849400	0.117640
H88	H	0.079900	0.046800	0.928400	0.068272
H89	H	0.832300	0.134900	0.777500	0.080898
H90	H	0.856900	0.057300	0.783000	0.080898
H91	H	0.011000	0.072100	0.734800	0.055173
H92	H	0.993400	0.150800	0.732300	0.055173
H93	H	0.864400	0.056800	0.675900	0.080898
H94	H	0.854500	0.136000	0.671200	0.080898
H95	H	0.989300	0.001500	0.620100	0.117640
H96	H	0.098500	0.001400	0.544200	0.066798
H97	H	0.097700	0.201100	0.544200	0.066798
H98	H	0.982200	0.201000	0.614100	0.117640
H99	H	0.209300	0.024500	0.023400	0.068272
H100	H	0.321500	0.976500	0.088400	0.117640
H101	H	0.412000	0.159800	0.132800	0.117640
H102	H	0.301900	0.204800	0.068700	0.068272
H103	H	0.514000	0.054500	0.161500	0.080898
H104	H	0.461800	0.983500	0.151700	0.080898
H105	H	0.362200	0.081800	0.219800	0.055173
H106	H	0.339700	0.003700	0.219200	0.055173
H107	H	0.518400	0.058300	0.264000	0.080898
H108	H	0.484800	0.981900	0.268100	0.080898
H109	H	0.359600	0.949800	0.339600	0.117640
H110	H	0.256800	0.979000	0.413500	0.066798
H111	H	0.317700	0.169800	0.389600	0.066798
H112	H	0.417200	0.143100	0.315300	0.117640
H113	H	0.309000	0.728400	0.889400	0.068300
H114	H	0.251100	0.756400	0.801500	0.117640
H115	H	0.235800	0.558400	0.769600	0.117640
H116	H	0.286500	0.537100	0.855400	0.068300
H117	H	0.185700	0.723100	0.712900	0.080898
H118	H	0.160500	0.646300	0.701700	0.080898
H119	H	0.361400	0.700700	0.693600	0.055173
H120	H	0.333900	0.624800	0.680400	0.055173
H121	H	0.227300	0.666300	0.605700	0.080898
H122	H	0.274700	0.738400	0.616000	0.080898
H123	H	0.370300	0.567300	0.594300	0.117640
H124	H	0.494000	0.539800	0.532000	0.068300
H125	H	0.522100	0.729400	0.488000	0.068300
H126	H	0.414100	0.762200	0.552200	0.117640
H127	H	0.005800	0.731500	0.079500	0.068272
H128	H	0.093900	0.713300	0.155500	0.117640
H129	H	0.002900	0.521800	0.150600	0.117640
H130	H	0.920100	0.546800	0.071600	0.068272
H131	H	0.167700	0.634900	0.222500	0.080898
H132	H	0.143100	0.557300	0.217000	0.080898
H133	H	0.989000	0.572100	0.265200	0.055173
H134	H	0.006600	0.650800	0.267700	0.055173
H135	H	0.135600	0.556800	0.324100	0.080898
H136	H	0.145500	0.636000	0.328800	0.080898
H137	H	0.010700	0.501500	0.379900	0.117640
H138	H	0.901500	0.501400	0.455800	0.066798
H139	H	0.902300	0.701100	0.455800	0.066798
H140	H	0.017800	0.701000	0.385900	0.117640
H141	H	0.790700	0.524500	0.976600	0.068272
H142	H	0.678500	0.476500	0.911600	0.117640
H143	H	0.588000	0.659800	0.867200	0.117640
H144	H	0.698100	0.704800	0.931300	0.068272
H145	H	0.486000	0.554500	0.838500	0.080898
H146	H	0.538200	0.483500	0.848300	0.080898
H147	H	0.637800	0.581800	0.780200	0.055173
H148	H	0.660300	0.503700	0.780800	0.055173
H149	H	0.481600	0.558300	0.736000	0.080898
H150	H	0.515200	0.481900	0.731900	0.080898
H151	H	0.640400	0.449800	0.660400	0.117640
H152	H	0.743200	0.479000	0.586500	0.066798
H153	H	0.682300	0.669800	0.610400	0.066798
H154	H	0.582800	0.643100	0.684700	0.117640
H155	H	0.691000	0.228400	0.110600	0.068300
H156	H	0.748900	0.256400	0.198500	0.117640
H157	H	0.764200	0.058400	0.230400	0.117640
H158	H	0.713500	0.037100	0.144600	0.068300
H159	H	0.814300	0.223100	0.287100	0.080898
H160	H	0.839500	0.146300	0.298300	0.080898
H161	H	0.638600	0.200700	0.306400	0.055173
H162	H	0.666100	0.124800	0.319600	0.055173
H163	H	0.772700	0.166300	0.394300	0.080898
H164	H	0.725300	0.238400	0.384000	0.080898
H165	H	0.629700	0.067300	0.405700	0.117640
H166	H	0.506000	0.039800	0.468000	0.068300
H167	H	0.477900	0.229400	0.512000	0.068300
H168	H	0.585900	0.262200	0.447800	0.117640
C1	C	0.005400	0.187700	0.406000	0.147316
C2	C	0.057700	0.177600	0.360400	-0.252117
C3	C	0.060000	0.115400	0.336000	0.128334
C4	C	0.005200	0.065800	0.363400	-0.252117
C5	C	0.955200	0.081700	0.410600	0.147316
C6	C	0.113000	0.102200	0.282000	-0.205370
C7	C	0.040700	0.107100	0.231700	-0.089250
C8	C	0.097300	0.099000	0.175500	-0.205370
C9	C	0.026300	0.098600	0.126800	0.128334
C10	C	0.990900	0.042800	0.104900	-0.247427
C11	C	0.923600	0.042700	0.058800	0.127455
C12	C	0.925700	0.160000	0.058500	0.127455
C13	C	0.992600	0.159800	0.101000	-0.247427
C14	C	0.751900	0.052200	0.546600	0.147316
C15	C	0.681800	0.023500	0.584800	-0.252117
C16	C	0.620000	0.062400	0.615900	0.128334
C17	C	0.628300	0.131300	0.611100	-0.252117
C18	C	0.696600	0.158000	0.573800	0.147316
C19	C	0.550900	0.030900	0.660300	-0.205370
C20	C	0.606300	0.037300	0.717700	-0.089250
C21	C	0.540000	0.028300	0.766800	-0.205370
C22	C	0.598100	0.043800	0.818300	0.128334
C23	C	0.648100	0.995300	0.849000	-0.247427
C24	C	0.709800	0.013000	0.893700	0.127455
C25	C	0.674900	0.124400	0.879800	0.127455
C26	C	0.614200	0.108100	0.834900	-0.247427
C27	C	0.706300	0.693900	0.364300	0.146060
C28	C	0.740400	0.711100	0.311400	-0.251668
C29	C	0.761500	0.660700	0.274200	0.128334
C30	C	0.749700	0.594500	0.293400	-0.251668
C31	C	0.718700	0.582200	0.344200	0.146060
C32	C	0.787600	0.677300	0.215200	-0.205370
C33	C	0.691200	0.671100	0.178800	-0.089250
C34	C	0.712100	0.690000	0.118300	-0.205370
C35	C	0.624800	0.672300	0.080800	0.128334
C36	C	0.597500	0.601100	0.073600	-0.251668
C37	C	0.523900	0.585200	0.035800	0.146060
C38	C	0.506700	0.696600	0.011100	0.146060
C39	C	0.573400	0.715900	0.048200	-0.251668
C40	C	0.994600	0.687700	0.594000	0.147316
C41	C	0.942300	0.677600	0.639600	-0.252117
C42	C	0.940000	0.615400	0.664000	0.128334
C43	C	0.994800	0.565800	0.636600	-0.252117
C44	C	0.044800	0.581700	0.589400	0.147316
C45	C	0.887000	0.602200	0.718000	-0.205370
C46	C	0.959300	0.607100	0.768300	-0.089250
C47	C	0.902700	0.599000	0.824500	-0.205370
C48	C	0.973700	0.598600	0.873200	0.128334
C49	C	0.009100	0.542800	0.895100	-0.247427
C50	C	0.076400	0.542700	0.941200	0.127455
C51	C	0.074300	0.660000	0.941500	0.127455
C52	C	0.007400	0.659800	0.899000	-0.247427
C53	C	0.248100	0.552200	0.453400	0.147316
C54	C	0.318200	0.523500	0.415200	-0.252117
C55	C	0.380000	0.562400	0.384100	0.128334
C56	C	0.371700	0.631300	0.388900	-0.252117
C57	C	0.303400	0.658000	0.426200	0.147316
C58	C	0.449100	0.530900	0.339700	-0.205370
C59	C	0.393700	0.537300	0.282300	-0.089250
C60	C	0.460000	0.528300	0.233200	-0.205370
C61	C	0.401900	0.543800	0.181700	0.128334
C62	C	0.351900	0.495300	0.151000	-0.247427
C63	C	0.290200	0.513000	0.106300	0.127455
C64	C	0.325100	0.624400	0.120200	0.127455
C65	C	0.385800	0.608100	0.165100	-0.247427
C66	C	0.293700	0.193900	0.635700	0.146060
C67	C	0.259600	0.211100	0.688600	-0.251668
C68	C	0.238500	0.160700	0.725800	0.128334
C69	C	0.250300	0.094500	0.706600	-0.251668
C70	C	0.281300	0.082200	0.655800	0.146060
C71	C	0.212400	0.177300	0.784800	-0.205370
C72	C	0.308800	0.171100	0.821200	-0.089250
C73	C	0.287900	0.190000	0.881700	-0.205370
C74	C	0.375200	0.172300	0.919200	0.128334
C75	C	0.402500	0.101100	0.926400	-0.251668
C76	C	0.476100	0.085200	0.964200	0.146060
C77	C	0.493300	0.196600	0.988900	0.146060
C78	C	0.426600	0.215900	0.951800	-0.251668
C79	C	0.994600	0.187700	0.906000	0.147316
C80	C	0.942300	0.177600	0.860400	-0.252117
C81	C	0.940000	0.115400	0.836000	0.128334
C82	C	0.994800	0.065800	0.863400	-0.252117
C83	C	0.044800	0.081700	0.910600	0.147316
C84	C	0.887000	0.102200	0.782000	-0.205370
C85	C	0.959300	0.107100	0.731700	-0.089250
C86	C	0.902700	0.099000	0.675500	-0.205370
C87	C	0.973700	0.098600	0.626800	0.128334
C88	C	0.009100	0.042800	0.604900	-0.247427
C89	C	0.076400	0.042700	0.558800	0.127455
C90	C	0.074300	0.160000	0.558500	0.127455
C91	C	0.007400	0.159800	0.601000	-0.247427
C92	C	0.248100	0.052200	0.046600	0.147316
C93	C	0.318200	0.023500	0.084800	-0.252117
C94	C	0.380000	0.062400	0.115900	0.128334
C95	C	0.371700	0.131300	0.111100	-0.252117
C96	C	0.303400	0.158000	0.073800	0.147316
C97	C	0.449100	0.030900	0.160300	-0.205370
C98	C	0.393700	0.037300	0.217700	-0.089250
C99	C	0.460000	0.028300	0.266800	-0.205370
C100	C	0.401900	0.043800	0.318300	0.128334
C101	C	0.351900	0.995300	0.349000	-0.247427
C102	C	0.290200	0.013000	0.393700	0.127455
C103	C	0.325100	0.124400	0.379800	0.127455
C104	C	0.385800	0.108100	0.334900	-0.247427
C105	C	0.293700	0.693900	0.864300	0.146060
C106	C	0.259600	0.711100	0.811400	-0.251668
C107	C	0.238500	0.660700	0.774200	0.128334
C108	C	0.250300	0.594500	0.793400	-0.251668
C109	C	0.281300	0.582200	0.844200	0.146060
C110	C	0.212400	0.677300	0.715200	-0.205370
C111	C	0.308800	0.671100	0.678800	-0.089250
C112	C	0.287900	0.690000	0.618300	-0.205370
C113	C	0.375200	0.672300	0.580800	0.128334
C114	C	0.402500	0.601100	0.573600	-0.251668
C115	C	0.476100	0.585200	0.535800	0.146060
C116	C	0.493300	0.696600	0.511100	0.146060
C117	C	0.426600	0.715900	0.548200	-0.251668
C118	C	0.005400	0.687700	0.094000	0.147316
C119	C	0.057700	0.677600	0.139600	-0.252117
C120	C	0.060000	0.615400	0.164000	0.128334
C121	C	0.005200	0.565800	0.136600	-0.252117
C122	C	0.955200	0.581700	0.089400	0.147316
C123	C	0.113000	0.602200	0.218000	-0.205370
C124	C	0.040700	0.607100	0.268300	-0.089250
C125	C	0.097300	0.599000	0.324500	-0.205370
C126	C	0.026300	0.598600	0.373200	0.128334
C127	C	0.990900	0.542800	0.395100	-0.247427
C128	C	0.923600	0.542700	0.441200	0.127455
C129	C	0.925700	0.660000	0.441500	0.127455
C130	C	0.992600	0.659800	0.399000	-0.247427
C131	C	0.751900	0.552200	0.953400	0.147316
C132	C	0.681800	0.523500	0.915200	-0.252117
C133	C	0.620000	0.562400	0.884100	0.128334
C134	C	0.628300	0.631300	0.888900	-0.252117
C135	C	0.696600	0.658000	0.926200	0.147316
C136	C	0.550900	0.530900	0.839700	-0.205370
C137	C	0.606300	0.537300	0.782300	-0.089250
C138	C	0.540000	0.528300	0.733200	-0.205370
C139	C	0.598100	0.543800	0.681700	0.128334
C140	C	0.648100	0.495300	0.651000	-0.247427
C141	C	0.709800	0.513000	0.606300	0.127455
C142	C	0.674900	0.624400	0.620200	0.127455
C143	C	0.614200	0.608100	0.665100	-0.247427
C144	C	0.706300	0.193900	0.135700	0.146060
C145	C	0.740400	0.211100	0.188600	-0.251668
C146	C	0.761500	0.160700	0.225800	0.128334
C147	C	0.749700	0.094500	0.206600	-0.251668
C148	C	0.718700	0.082200	0.155800	0.146060
C149	C	0.787600	0.177300	0.284800	-0.205370
C150	C	0.691200	0.171100	0.321200	-0.089250
C151	C	0.712100	0.190000	0.381700	-0.205370
C152	C	0.624800	0.172300	0.419200	0.128334
C153	C	0.597500	0.101100	0.426400	-0.251668
C154	C	0.523900	0.085200	0.464200	0.146060
C155	C	0.506700	0.196600	0.488900	0.146060
C156	C	0.573400	0.215900	0.451800	-0.251668
N1	N	0.951200	0.141400	0.433900	-0.329961
N2	N	0.891400	0.099800	0.036200	-0.266056
N3	N	0.761500	0.119400	0.544400	-0.329961
N4	N	0.722800	0.078100	0.909100	-0.266056
N5	N	0.694400	0.629600	0.380400	-0.312224
N6	N	0.476200	0.629700	0.004300	-0.312224
N7	N	0.048800	0.641400	0.566100	-0.329961
N8	N	0.108600	0.599800	0.963800	-0.266056
N9	N	0.238500	0.619400	0.455600	-0.329961
N10	N	0.277200	0.578100	0.090900	-0.266056
N11	N	0.305600	0.129600	0.619600	-0.312224
N12	N	0.523800	0.129700	0.995700	-0.312224
N13	N	0.048800	0.141400	0.933900	-0.329961
N14	N	0.108600	0.099800	0.536200	-0.266056
N15	N	0.238500	0.119400	0.044400	-0.329961
N16	N	0.277200	0.078100	0.409100	-0.266056
N17	N	0.305600	0.629600	0.880400	-0.312224
N18	N	0.523800	0.629700	0.504300	-0.312224
N19	N	0.951200	0.641400	0.066100	-0.329961
N20	N	0.891400	0.599800	0.463800	-0.266056
N21	N	0.761500	0.619400	0.955600	-0.329961
N22	N	0.722800	0.578100	0.590900	-0.266056
N23	N	0.694400	0.129600	0.119600	-0.312224
N24	N	0.476200	0.129700	0.495700	-0.312224
O1	O	0.857500	0.265800	0.503400	-0.840932
O2	O	0.960800	0.372200	0.557500	-0.921169
O3	O	0.756000	0.392300	0.508200	-0.809863
O4	O	0.681500	0.509200	0.465900	-0.872470
O5	O	0.538300	0.414800	0.495800	-0.779264
O6	O	0.360400	0.338600	0.486600	-0.852795
O7	O	0.373400	0.437600	0.572500	-0.826038
O8	O	0.141600	0.312700	0.507700	-0.823000
O9	O	0.150200	0.439200	0.564700	-0.811544
O10	O	0.142500	0.765800	0.496600	-0.840932
O11	O	0.039200	0.872200	0.442500	-0.921169
O12	O	0.244000	0.892300	0.491800	-0.809863
O13	O	0.318500	0.009200	0.534100	-0.872470
O14	O	0.461700	0.914800	0.504200	-0.779264
O15	O	0.639600	0.838600	0.513400	-0.852795
O16	O	0.626600	0.937600	0.427500	-0.826038
O17	O	0.858400	0.812700	0.492300	-0.823000
O18	O	0.849800	0.939200	0.435300	-0.811544
O19	O	0.142500	0.265800	0.003400	-0.840932
O20	O	0.039200	0.372200	0.057500	-0.921169
O21	O	0.244000	0.392300	0.008200	-0.809863
O22	O	0.318500	0.509200	0.965900	-0.872470
O23	O	0.461700	0.414800	0.995800	-0.779264
O24	O	0.639600	0.338600	0.986600	-0.852795
O25	O	0.626600	0.437600	0.072500	-0.826038
O26	O	0.858400	0.312700	0.007700	-0.823000
O27	O	0.849800	0.439200	0.064700	-0.811544
O28	O	0.857500	0.765800	0.996600	-0.840932
O29	O	0.960800	0.872200	0.942500	-0.921169
O30	O	0.756000	0.892300	0.991800	-0.809863
O31	O	0.681500	0.009200	0.034100	-0.872470
O32	O	0.538300	0.914800	0.004200	-0.779264
O33	O	0.360400	0.838600	0.013400	-0.852795
O34	O	0.373400	0.937600	0.927500	-0.826038
O35	O	0.141600	0.812700	0.992300	-0.823000
O36	O	0.150200	0.939200	0.935300	-0.811544
