data_TEBFUD_clean_PM
_symmetry_space_group_name_H-M	'P1'
_cell_length_a	7.149100
_cell_length_b	10.706300
_cell_length_c	17.119700
_cell_angle_alpha	97.096999
_cell_angle_beta	90.000000
_cell_angle_gamma	90.000000
_symmetry_Int_Tables_number 1

loop_
_symmetry_equiv_pos_as_xyz
'x,y,z'

loop_
_atom_site_label
_atom_site_type_symbol
_atom_site_fract_x
_atom_site_fract_y
_atom_site_fract_z
_atom_site_charge
Dy1	Dy	0.020160	0.176320	0.746670	2.332018
Dy2	Dy	0.520160	0.323680	0.753330	2.332018
Dy3	Dy	0.979840	0.823680	0.253330	2.332018
Dy4	Dy	0.479840	0.676320	0.246670	2.332018
H1	H	0.179200	0.995000	0.521900	0.109631
H2	H	0.461600	0.692500	0.563400	0.414240
H3	H	0.159900	0.337200	0.551700	0.109474
H4	H	0.679200	0.505000	0.978100	0.109631
H5	H	0.961600	0.807500	0.936600	0.414240
H6	H	0.659900	0.162800	0.948300	0.109474
H7	H	0.820800	0.005000	0.478100	0.109631
H8	H	0.538400	0.307500	0.436600	0.414240
H9	H	0.840100	0.662800	0.448300	0.109474
H10	H	0.320800	0.495000	0.021900	0.109631
H11	H	0.038400	0.192500	0.063400	0.414240
H12	H	0.340100	0.837200	0.051700	0.109474
C1	C	0.326200	0.085000	0.649090	0.726939
C2	C	0.425100	0.042700	0.573640	-0.104251
C3	C	0.309500	0.994100	0.512040	0.004849
C4	C	0.752300	0.096100	0.625820	0.759613
C5	C	0.618000	0.048600	0.561960	-0.107505
C6	C	0.852400	0.390900	0.634800	0.766644
C7	C	0.927600	0.452600	0.566950	-0.104204
C8	C	0.839500	0.553200	0.536990	-0.086482
C9	C	0.679200	0.621600	0.579110	0.637264
C10	C	0.089200	0.401400	0.529720	-0.022402
C11	C	0.826200	0.415000	0.850910	0.726939
C12	C	0.925100	0.457300	0.926360	-0.104251
C13	C	0.809500	0.505900	0.987960	0.004849
C14	C	0.252300	0.403900	0.874180	0.759613
C15	C	0.118000	0.451400	0.938040	-0.107505
C16	C	0.352400	0.109100	0.865200	0.766644
C17	C	0.427600	0.047400	0.933050	-0.104204
C18	C	0.339500	0.946800	0.963010	-0.086482
C19	C	0.179200	0.878400	0.920890	0.637264
C20	C	0.589200	0.098600	0.970280	-0.022402
C21	C	0.673800	0.915000	0.350910	0.726939
C22	C	0.574900	0.957300	0.426360	-0.104251
C23	C	0.690500	0.005900	0.487960	0.004849
C24	C	0.247700	0.903900	0.374180	0.759613
C25	C	0.382000	0.951400	0.438040	-0.107505
C26	C	0.147600	0.609100	0.365200	0.766644
C27	C	0.072400	0.547400	0.433050	-0.104204
C28	C	0.160500	0.446800	0.463010	-0.086482
C29	C	0.320800	0.378400	0.420890	0.637264
C30	C	0.910800	0.598600	0.470280	-0.022402
C31	C	0.173800	0.585000	0.149090	0.726939
C32	C	0.074900	0.542700	0.073640	-0.104251
C33	C	0.190500	0.494100	0.012040	0.004849
C34	C	0.747700	0.596100	0.125820	0.759613
C35	C	0.882000	0.548600	0.061960	-0.107505
C36	C	0.647600	0.890900	0.134800	0.766644
C37	C	0.572400	0.952600	0.066950	-0.104204
C38	C	0.660500	0.053200	0.036990	-0.086482
C39	C	0.820800	0.121600	0.079110	0.637264
C40	C	0.410800	0.901400	0.029720	-0.022402
O1	O	0.970400	0.344740	0.676640	-0.706358
O2	O	0.307700	0.203490	0.670920	-0.850936
O3	O	0.690000	0.145030	0.692700	-0.850983
O4	O	0.245500	0.006450	0.685090	-0.630252
O5	O	0.922700	0.084830	0.614110	-0.649382
O6	O	0.678400	0.386620	0.643990	-0.706358
O7	O	0.680200	0.652530	0.650100	-0.532542
O8	O	0.545000	0.648600	0.532770	-0.509015
O9	O	0.470400	0.155260	0.823360	-0.706358
O10	O	0.807700	0.296510	0.829080	-0.850936
O11	O	0.190000	0.354970	0.807300	-0.850983
O12	O	0.745500	0.493550	0.814910	-0.630252
O13	O	0.422700	0.415170	0.885890	-0.649382
O14	O	0.178400	0.113380	0.856010	-0.706358
O15	O	0.180200	0.847470	0.849900	-0.532542
O16	O	0.045000	0.851400	0.967230	-0.509015
O17	O	0.029600	0.655260	0.323360	-0.706358
O18	O	0.692300	0.796510	0.329080	-0.850936
O19	O	0.310000	0.854970	0.307300	-0.850983
O20	O	0.754500	0.993550	0.314910	-0.630252
O21	O	0.077300	0.915170	0.385890	-0.649382
O22	O	0.321600	0.613380	0.356010	-0.706358
O23	O	0.319800	0.347470	0.349900	-0.532542
O24	O	0.455000	0.351400	0.467230	-0.509015
O25	O	0.529600	0.844740	0.176640	-0.706358
O26	O	0.192300	0.703490	0.170920	-0.850936
O27	O	0.810000	0.645030	0.192700	-0.850983
O28	O	0.254500	0.506450	0.185090	-0.630252
O29	O	0.577300	0.584830	0.114110	-0.649382
O30	O	0.821600	0.886620	0.143990	-0.706358
O31	O	0.819800	0.152530	0.150100	-0.532542
O32	O	0.955000	0.148600	0.032770	-0.509015
