data_TIRRIW_clean_PM
_symmetry_space_group_name_H-M	'P1'
_cell_length_a	12.939000
_cell_length_b	13.092000
_cell_length_c	13.754000
_cell_angle_alpha	85.448998
_cell_angle_beta	70.302002
_cell_angle_gamma	83.730998
_symmetry_Int_Tables_number 1

loop_
_symmetry_equiv_pos_as_xyz
'x,y,z'

loop_
_atom_site_label
_atom_site_type_symbol
_atom_site_fract_x
_atom_site_fract_y
_atom_site_fract_z
_atom_site_charge
Co1	Co	0.194860	0.816820	0.170020	0.945590
Co2	Co	0.127760	0.825520	0.381690	0.945590
Co3	Co	0.805140	0.183180	0.829980	0.945590
Co4	Co	0.872240	0.174480	0.618310	0.945590
H1	H	0.872300	0.803400	0.168900	0.105404
H2	H	0.743800	0.781600	0.076500	0.103490
H3	H	0.566300	0.782800	0.077600	0.098445
H4	H	0.449900	0.832400	0.381400	0.105404
H5	H	0.580600	0.851200	0.475800	0.103490
H6	H	0.758700	0.857800	0.472400	0.098445
H7	H	0.126700	0.155300	0.400600	0.105404
H8	H	0.105700	0.325200	0.479800	0.103490
H9	H	0.117000	0.499500	0.461400	0.098445
H10	H	0.207400	0.486200	0.150100	0.105404
H11	H	0.217900	0.319500	0.072600	0.103490
H12	H	0.207400	0.144900	0.092700	0.098445
H13	H	0.079100	0.945700	0.041100	0.080190
H14	H	0.042100	0.938900	0.888200	0.127114
H15	H	0.211000	0.670800	0.839100	0.127114
H16	H	0.225100	0.673300	0.000600	0.080190
H17	H	0.114900	0.970300	0.710000	0.127114
H18	H	0.104100	0.971000	0.546700	0.080190
H19	H	0.204300	0.684800	0.523900	0.080190
H20	H	0.232300	0.679100	0.682200	0.127114
H21	H	0.127700	0.196600	0.831100	0.105404
H22	H	0.256200	0.218400	0.923500	0.103490
H23	H	0.433700	0.217200	0.922400	0.098445
H24	H	0.550100	0.167600	0.618600	0.105404
H25	H	0.419400	0.148800	0.524200	0.103490
H26	H	0.241300	0.142200	0.527600	0.098445
H27	H	0.873300	0.844700	0.599400	0.105404
H28	H	0.894300	0.674800	0.520200	0.103490
H29	H	0.883000	0.500500	0.538600	0.098445
H30	H	0.792600	0.513800	0.849900	0.105404
H31	H	0.782100	0.680500	0.927400	0.103490
H32	H	0.792600	0.855100	0.907300	0.098445
H33	H	0.920900	0.054300	0.958900	0.080190
H34	H	0.957900	0.061100	0.111800	0.127114
H35	H	0.789000	0.329200	0.160900	0.127114
H36	H	0.774900	0.326700	0.999400	0.080190
H37	H	0.885100	0.029700	0.290000	0.127114
H38	H	0.895900	0.029000	0.453300	0.080190
H39	H	0.795700	0.315200	0.476100	0.080190
H40	H	0.767700	0.320900	0.317800	0.127114
C1	C	0.948100	0.830800	0.317200	0.668419
C2	C	0.833600	0.828800	0.318800	-0.118981
C3	C	0.812100	0.813400	0.231100	-0.083273
C4	C	0.703800	0.811700	0.228700	0.033600
C5	C	0.684000	0.793600	0.138600	-0.147905
C6	C	0.579100	0.793400	0.139900	-0.034625
C7	C	0.487800	0.808400	0.231400	-0.118981
C8	C	0.510100	0.823700	0.319000	-0.083273
C9	C	0.615700	0.827300	0.322000	0.033600
C10	C	0.639500	0.842500	0.412400	-0.147905
C11	C	0.745000	0.845100	0.411000	-0.034625
C12	C	0.373300	0.809300	0.232700	0.668419
C13	C	0.159900	0.018600	0.261600	0.668419
C14	C	0.165300	0.132900	0.250200	-0.118981
C15	C	0.144500	0.189300	0.334200	-0.083273
C16	C	0.148400	0.295600	0.325900	0.033600
C17	C	0.125800	0.357400	0.412400	-0.147905
C18	C	0.131800	0.460500	0.402000	-0.034625
C19	C	0.160300	0.510000	0.302400	-0.118981
C20	C	0.184800	0.453000	0.217000	-0.083273
C21	C	0.177000	0.345200	0.226800	0.033600
C22	C	0.198900	0.286900	0.139800	-0.147905
C23	C	0.192700	0.183900	0.152000	-0.034625
C24	C	0.163700	0.623400	0.291300	0.668419
C25	C	0.114700	0.891700	0.995900	0.178531
C26	C	0.095900	0.891100	0.903300	-0.198451
C27	C	0.158700	0.817200	0.830700	0.086171
C28	C	0.192900	0.733300	0.874200	-0.198451
C29	C	0.202400	0.736100	0.971100	0.178531
C30	C	0.148900	0.819500	0.726600	0.086171
C31	C	0.126400	0.907000	0.677000	-0.198451
C32	C	0.119600	0.907000	0.579000	0.178531
C33	C	0.179200	0.743100	0.565300	0.178531
C34	C	0.193300	0.737500	0.661200	-0.198451
C35	C	0.051900	0.169200	0.682800	0.668419
C36	C	0.166400	0.171200	0.681200	-0.118981
C37	C	0.187900	0.186600	0.768900	-0.083273
C38	C	0.296200	0.188300	0.771300	0.033600
C39	C	0.316000	0.206400	0.861400	-0.147905
C40	C	0.420900	0.206600	0.860100	-0.034625
C41	C	0.512200	0.191600	0.768600	-0.118981
C42	C	0.489900	0.176300	0.681000	-0.083273
C43	C	0.384300	0.172700	0.678000	0.033600
C44	C	0.360500	0.157500	0.587600	-0.147905
C45	C	0.255000	0.154900	0.589000	-0.034625
C46	C	0.626700	0.190700	0.767300	0.668419
C47	C	0.840100	0.981400	0.738400	0.668419
C48	C	0.834700	0.867100	0.749800	-0.118981
C49	C	0.855500	0.810700	0.665800	-0.083273
C50	C	0.851600	0.704400	0.674100	0.033600
C51	C	0.874200	0.642600	0.587600	-0.147905
C52	C	0.868200	0.539500	0.598000	-0.034625
C53	C	0.839700	0.490000	0.697600	-0.118981
C54	C	0.815200	0.547000	0.783000	-0.083273
C55	C	0.823000	0.654800	0.773200	0.033600
C56	C	0.801100	0.713100	0.860200	-0.147905
C57	C	0.807300	0.816100	0.848000	-0.034625
C58	C	0.836300	0.376600	0.708700	0.668419
C59	C	0.885300	0.108300	0.004100	0.178531
C60	C	0.904100	0.108900	0.096700	-0.198451
C61	C	0.841300	0.182800	0.169300	0.086171
C62	C	0.807100	0.266700	0.125800	-0.198451
C63	C	0.797600	0.263900	0.028900	0.178531
C64	C	0.851100	0.180500	0.273400	0.086171
C65	C	0.873600	0.093000	0.323000	-0.198451
C66	C	0.880400	0.093000	0.421000	0.178531
C67	C	0.820800	0.256900	0.434700	0.178531
C68	C	0.806700	0.262500	0.338800	-0.198451
N1	N	0.182900	0.817500	0.025500	-0.344131
N2	N	0.133400	0.824000	0.528600	-0.344131
N3	N	0.817100	0.182500	0.974500	-0.344131
N4	N	0.866600	0.176000	0.471400	-0.344131
O1	O	0.023400	0.825390	0.229940	-0.577886
O2	O	0.964600	0.837440	0.401430	-0.577886
O3	O	0.298100	0.810930	0.317900	-0.577886
O4	O	0.357500	0.808500	0.146400	-0.577886
O5	O	0.182200	0.971400	0.178490	-0.577886
O6	O	0.134500	0.978220	0.350510	-0.577886
O7	O	0.136400	0.671970	0.373540	-0.577886
O8	O	0.192100	0.665420	0.201230	-0.577886
O9	O	0.976600	0.174610	0.770060	-0.577886
O10	O	0.035400	0.162560	0.598570	-0.577886
O11	O	0.701900	0.189070	0.682100	-0.577886
O12	O	0.642500	0.191500	0.853600	-0.577886
O13	O	0.817800	0.028600	0.821510	-0.577886
O14	O	0.865500	0.021780	0.649490	-0.577886
O15	O	0.863600	0.328030	0.626460	-0.577886
O16	O	0.807900	0.334580	0.798770	-0.577886
