data_UKAPUS_clean_PM
_symmetry_space_group_name_H-M	'P1'
_cell_length_a	10.729800
_cell_length_b	11.907900
_cell_length_c	14.767800
_cell_angle_alpha	73.056997
_cell_angle_beta	71.528003
_cell_angle_gamma	66.455999
_symmetry_Int_Tables_number 1

loop_
_symmetry_equiv_pos_as_xyz
'x,y,z'

loop_
_atom_site_label
_atom_site_type_symbol
_atom_site_fract_x
_atom_site_fract_y
_atom_site_fract_z
_atom_site_charge
Nd1	Nd	0.014950	0.450550	0.371710	2.288858
Nd2	Nd	0.985050	0.549450	0.628290	2.288858
P1	P	0.859280	0.281900	0.273520	1.067089
P2	P	0.140720	0.718100	0.726480	1.067089
H1	H	0.497700	0.362600	0.557800	0.107588
H2	H	0.049800	0.102800	0.381400	0.091257
H3	H	0.726300	0.319600	0.463200	0.091257
H4	H	0.027800	0.175300	0.107500	0.091257
H5	H	0.359100	0.385300	0.324600	0.107588
H6	H	0.589400	0.334900	0.231100	0.091257
H7	H	0.815200	0.084100	0.221800	0.091257
H8	H	0.750300	0.577500	0.983400	0.107588
H9	H	0.060600	0.250900	0.939200	0.107588
H10	H	0.115400	0.887000	0.435300	0.107588
H11	H	0.895400	0.864400	0.267200	0.107588
H12	H	0.725600	0.508200	0.152300	0.091257
H13	H	0.502300	0.637400	0.442200	0.107588
H14	H	0.950200	0.897200	0.618600	0.091257
H15	H	0.273700	0.680400	0.536800	0.091257
H16	H	0.972200	0.824700	0.892500	0.091257
H17	H	0.640900	0.614700	0.675400	0.107588
H18	H	0.410600	0.665100	0.768900	0.091257
H19	H	0.184800	0.915900	0.778200	0.091257
H20	H	0.249700	0.422500	0.016600	0.107588
H21	H	0.939400	0.749100	0.060800	0.107588
H22	H	0.884600	0.113000	0.564700	0.107588
H23	H	0.104600	0.135600	0.732800	0.107588
H24	H	0.274400	0.491800	0.847700	0.091257
C1	C	0.871600	0.334300	0.145600	-0.288760
C2	C	0.516100	0.358500	0.491400	-0.058754
C3	C	0.924000	0.113500	0.298700	-0.288760
C4	C	0.679000	0.325000	0.337900	-0.288760
C5	C	0.015100	0.055100	0.360400	-0.016150
C6	C	0.651900	0.332400	0.435300	-0.016150
C7	C	0.406000	0.379000	0.450000	-0.102773
C8	C	0.972400	0.257000	0.082700	-0.016150
C9	C	0.433600	0.371100	0.352800	-0.058754
C10	C	0.570300	0.342500	0.296800	-0.016150
C11	C	0.877400	0.043700	0.264200	-0.016150
C12	C	0.907300	0.420200	0.945700	-0.100101
C13	C	0.929800	0.462800	0.837400	0.755162
C14	C	0.807400	0.496800	0.008500	-0.060355
C15	C	0.990500	0.301900	0.982600	-0.060355
C16	C	0.008600	0.856300	0.358500	-0.100101
C17	C	0.055400	0.926900	0.391400	-0.060355
C18	C	0.922900	0.913300	0.292700	-0.060355
C19	C	0.044900	0.717600	0.397800	0.755162
C20	C	0.260600	0.412700	0.511000	0.742217
C21	C	0.791200	0.454800	0.109000	-0.016150
C22	C	0.128400	0.665700	0.854400	-0.288760
C23	C	0.483900	0.641500	0.508600	-0.058754
C24	C	0.076000	0.886500	0.701300	-0.288760
C25	C	0.321000	0.675000	0.662100	-0.288760
C26	C	0.984900	0.944900	0.639600	-0.016150
C27	C	0.348100	0.667600	0.564700	-0.016150
C28	C	0.594000	0.621000	0.550000	-0.102773
C29	C	0.027600	0.743000	0.917300	-0.016150
C30	C	0.566400	0.628900	0.647200	-0.058754
C31	C	0.429700	0.657500	0.703200	-0.016150
C32	C	0.122600	0.956300	0.735800	-0.016150
C33	C	0.092700	0.579800	0.054300	-0.100101
C34	C	0.070200	0.537200	0.162600	0.755162
C35	C	0.192600	0.503200	0.991500	-0.060355
C36	C	0.009500	0.698100	0.017400	-0.060355
C37	C	0.991400	0.143700	0.641500	-0.100101
C38	C	0.944600	0.073100	0.608600	-0.060355
C39	C	0.077100	0.086700	0.707300	-0.060355
C40	C	0.955100	0.282400	0.602200	0.755162
C41	C	0.739400	0.587300	0.489000	0.742217
C42	C	0.208800	0.545200	0.891000	-0.016150
O1	O	0.048900	0.418700	0.785400	-0.707541
O2	O	0.238700	0.433900	0.594700	-0.645767
O3	O	0.072400	0.679900	0.480700	-0.707541
O4	O	0.826600	0.540400	0.800300	-0.707541
O5	O	0.042500	0.651500	0.346200	-0.707541
O6	O	0.159400	0.422900	0.477500	-0.833672
O7	O	0.939100	0.329700	0.311100	-0.866869
O8	O	0.951100	0.581300	0.214600	-0.707541
O9	O	0.761300	0.566100	0.405300	-0.645767
O10	O	0.927600	0.320100	0.519300	-0.707541
O11	O	0.173400	0.459600	0.199700	-0.707541
O12	O	0.957500	0.348500	0.653800	-0.707541
O13	O	0.840600	0.577100	0.522500	-0.833672
O14	O	0.060900	0.670300	0.688900	-0.866869
