data_ULUVUT_clean_PM
_symmetry_space_group_name_H-M	'P1'
_cell_length_a	8.779600
_cell_length_b	10.029700
_cell_length_c	10.156070
_cell_angle_alpha	119.586914
_cell_angle_beta	115.606844
_cell_angle_gamma	90.004500
_symmetry_Int_Tables_number 1

loop_
_symmetry_equiv_pos_as_xyz
'x,y,z'

loop_
_atom_site_label
_atom_site_type_symbol
_atom_site_fract_x
_atom_site_fract_y
_atom_site_fract_z
_atom_site_charge
Zn1	Zn	0.979610	0.163140	0.275420	0.795051
Zn2	Zn	0.204190	0.887720	0.724580	0.795051
H1	H	0.849000	0.852600	0.246000	0.331243
H2	H	0.875300	0.768700	0.340800	0.331243
H3	H	0.002600	0.183900	0.878000	0.331243
H4	H	0.043700	0.275600	0.056200	0.331243
H5	H	0.103000	0.606600	0.754000	0.331243
H6	H	0.034500	0.427900	0.659200	0.331243
H7	H	0.624600	0.305900	0.122000	0.331243
H8	H	0.487500	0.219400	0.943800	0.331243
C1	C	0.029600	0.980900	0.456000	0.625928
C2	C	0.096000	0.079300	0.003800	0.625928
C3	C	0.073600	0.524900	0.544000	0.625928
C4	C	0.592200	0.075500	0.996200	0.625928
N1	N	0.064000	0.109800	0.452800	-0.353184
N2	N	0.203500	0.217200	0.612800	-0.107027
N3	N	0.897500	0.849500	0.327400	-0.765517
N4	N	0.143100	0.007500	0.610600	-0.353184
N5	N	0.249400	0.159000	0.705600	-0.107027
N6	N	0.135600	0.930800	0.106400	-0.107027
N7	N	0.157200	0.862400	0.974400	-0.107027
N8	N	0.095400	0.071300	0.131200	-0.353184
N9	N	0.133400	0.952800	0.905000	-0.353184
N10	N	0.062600	0.199800	0.982200	-0.765517
N11	N	0.111200	0.657000	0.547200	-0.353184
N12	N	0.090700	0.604400	0.387200	-0.107027
N13	N	0.070100	0.522100	0.672600	-0.765517
N14	N	0.032500	0.396900	0.389400	-0.353184
N15	N	0.043800	0.453400	0.294400	-0.107027
N16	N	0.529200	0.824400	0.893600	-0.107027
N17	N	0.682800	0.888000	0.025600	-0.107027
N18	N	0.464200	0.940100	0.868800	-0.353184
N19	N	0.728400	0.047800	0.095000	-0.353184
N20	N	0.580400	0.217600	0.017800	-0.765517
