data_UNABUH01_clean_PM
_symmetry_space_group_name_H-M	'P1'
_cell_length_a	8.404800
_cell_length_b	10.237900
_cell_length_c	17.667100
_cell_angle_alpha	90.000000
_cell_angle_beta	103.032000
_cell_angle_gamma	90.000000
_symmetry_Int_Tables_number 1

loop_
_symmetry_equiv_pos_as_xyz
'x,y,z'

loop_
_atom_site_label
_atom_site_type_symbol
_atom_site_fract_x
_atom_site_fract_y
_atom_site_fract_z
_atom_site_charge
Cu1	Cu	0.826290	0.557740	0.432040	0.844962
Cu2	Cu	0.326290	0.942260	0.932040	0.844962
Cu3	Cu	0.673710	0.057740	0.067960	0.844962
Cu4	Cu	0.173710	0.442260	0.567960	0.844962
H1	H	0.536900	0.770300	0.169600	0.103385
H2	H	0.645600	0.589200	0.984800	0.124578
H3	H	0.814200	0.448800	0.199800	0.123752
H4	H	0.894200	0.271100	0.863700	0.126871
H5	H	0.063400	0.109000	0.841800	0.082122
H6	H	0.235500	0.064400	0.064500	0.082122
H7	H	0.069300	0.225800	0.092100	0.126871
H8	H	0.864900	0.338100	0.096100	0.288959
H9	H	0.036900	0.729700	0.669600	0.103385
H10	H	0.145600	0.910800	0.484800	0.124578
H11	H	0.314200	0.051200	0.699800	0.123752
H12	H	0.394200	0.228900	0.363700	0.126871
H13	H	0.563400	0.391000	0.341800	0.082122
H14	H	0.735500	0.435600	0.564500	0.082122
H15	H	0.569300	0.274200	0.592100	0.126871
H16	H	0.364900	0.161900	0.596100	0.288959
H17	H	0.963100	0.270300	0.330400	0.103385
H18	H	0.854400	0.089200	0.515200	0.124578
H19	H	0.685800	0.948800	0.300200	0.123752
H20	H	0.605800	0.771100	0.636300	0.126871
H21	H	0.436600	0.609000	0.658200	0.082122
H22	H	0.264500	0.564400	0.435500	0.082122
H23	H	0.430700	0.725800	0.407900	0.126871
H24	H	0.635100	0.838100	0.403900	0.288959
H25	H	0.463100	0.229700	0.830400	0.103385
H26	H	0.354400	0.410800	0.015200	0.124578
H27	H	0.185800	0.551200	0.800200	0.123752
H28	H	0.105800	0.728900	0.136300	0.126871
H29	H	0.936600	0.891000	0.158200	0.082122
H30	H	0.764500	0.935600	0.935500	0.082122
H31	H	0.930700	0.774200	0.907900	0.126871
H32	H	0.135100	0.661900	0.903900	0.288959
C1	C	0.677500	0.610800	0.197600	-0.092128
C2	C	0.588700	0.702800	0.149300	-0.018078
C3	C	0.577000	0.694100	0.069700	-0.090400
C4	C	0.654400	0.594400	0.038100	-0.127075
C5	C	0.745500	0.502700	0.088200	0.183837
C6	C	0.754800	0.511100	0.166700	-0.137834
C7	C	0.694700	0.619100	0.283900	0.631087
C8	C	0.486200	0.792900	0.016600	0.652642
C9	C	0.859200	0.382900	0.991200	0.496715
C10	C	0.964200	0.268300	0.981100	-0.000249
C11	C	0.963700	0.230300	0.905400	-0.141902
C12	C	0.065000	0.133500	0.892600	0.157742
C13	C	0.166000	0.107400	0.023700	0.157742
C14	C	0.066800	0.204100	0.040700	-0.141902
C15	C	0.177500	0.889200	0.697600	-0.092128
C16	C	0.088700	0.797200	0.649300	-0.018078
C17	C	0.077000	0.805900	0.569700	-0.090400
C18	C	0.154400	0.905600	0.538100	-0.127075
C19	C	0.245500	0.997300	0.588200	0.183837
C20	C	0.254800	0.988900	0.666700	-0.137834
C21	C	0.194700	0.880900	0.783900	0.631087
C22	C	0.986200	0.707100	0.516600	0.652642
C23	C	0.359200	0.117100	0.491200	0.496715
C24	C	0.464200	0.231700	0.481100	-0.000249
C25	C	0.463700	0.269700	0.405400	-0.141902
C26	C	0.565000	0.366500	0.392600	0.157742
C27	C	0.666000	0.392600	0.523700	0.157742
C28	C	0.566800	0.295900	0.540700	-0.141902
C29	C	0.822500	0.110800	0.302400	-0.092128
C30	C	0.911300	0.202800	0.350700	-0.018078
C31	C	0.923000	0.194100	0.430300	-0.090400
C32	C	0.845600	0.094400	0.461900	-0.127075
C33	C	0.754500	0.002700	0.411800	0.183837
C34	C	0.745200	0.011100	0.333300	-0.137834
C35	C	0.805300	0.119100	0.216100	0.631087
C36	C	0.013800	0.292900	0.483400	0.652642
C37	C	0.640800	0.882900	0.508800	0.496715
C38	C	0.535800	0.768300	0.518900	-0.000249
C39	C	0.536300	0.730300	0.594600	-0.141902
C40	C	0.435000	0.633500	0.607400	0.157742
C41	C	0.334000	0.607400	0.476300	0.157742
C42	C	0.433200	0.704100	0.459300	-0.141902
C43	C	0.322500	0.389200	0.802400	-0.092128
C44	C	0.411300	0.297200	0.850700	-0.018078
C45	C	0.423000	0.305900	0.930300	-0.090400
C46	C	0.345600	0.405600	0.961900	-0.127075
C47	C	0.254500	0.497300	0.911800	0.183837
C48	C	0.245200	0.488900	0.833300	-0.137834
C49	C	0.305300	0.380900	0.716100	0.631087
C50	C	0.513800	0.207100	0.983400	0.652642
C51	C	0.140800	0.617100	0.008800	0.496715
C52	C	0.035800	0.731700	0.018900	-0.000249
C53	C	0.036300	0.769700	0.094600	-0.141902
C54	C	0.935000	0.866500	0.107400	0.157742
C55	C	0.834000	0.892600	0.976300	0.157742
C56	C	0.933200	0.795900	0.959300	-0.141902
N1	N	0.167100	0.072200	0.951000	-0.312850
N2	N	0.829200	0.398400	0.062700	-0.406076
N3	N	0.667100	0.427800	0.451000	-0.312850
N4	N	0.329200	0.101600	0.562700	-0.406076
N5	N	0.332900	0.572200	0.549000	-0.312850
N6	N	0.670800	0.898400	0.437300	-0.406076
N7	N	0.832900	0.927800	0.049000	-0.312850
N8	N	0.170800	0.601600	0.937300	-0.406076
O1	O	0.793120	0.536200	0.323620	-0.582566
O2	O	0.618900	0.700700	0.312500	-0.578494
O3	O	0.469680	0.784000	0.944180	-0.536735
O4	O	0.420920	0.890600	0.041720	-0.536735
O5	O	0.810350	0.457300	0.937450	-0.480364
O6	O	0.293120	0.963800	0.823620	-0.582566
O7	O	0.118900	0.799300	0.812500	-0.578494
O8	O	0.969680	0.716000	0.444180	-0.536735
O9	O	0.920920	0.609400	0.541720	-0.536735
O10	O	0.310350	0.042700	0.437450	-0.480364
O11	O	0.706880	0.036200	0.176380	-0.582566
O12	O	0.881100	0.200700	0.187500	-0.578494
O13	O	0.030320	0.284000	0.555820	-0.536735
O14	O	0.079080	0.390600	0.458280	-0.536735
O15	O	0.689650	0.957300	0.562550	-0.480364
O16	O	0.206880	0.463800	0.676380	-0.582566
O17	O	0.381100	0.299300	0.687500	-0.578494
O18	O	0.530320	0.216000	0.055820	-0.536735
O19	O	0.579080	0.109400	0.958280	-0.536735
O20	O	0.189650	0.542700	0.062550	-0.480364
