data_UZANEP_clean_PM
_symmetry_space_group_name_H-M	'P1'
_cell_length_a	9.590300
_cell_length_b	10.180600
_cell_length_c	20.280500
_cell_angle_alpha	102.765002
_cell_angle_beta	90.000000
_cell_angle_gamma	90.000000
_symmetry_Int_Tables_number 1

loop_
_symmetry_equiv_pos_as_xyz
'x,y,z'

loop_
_atom_site_label
_atom_site_type_symbol
_atom_site_fract_x
_atom_site_fract_y
_atom_site_fract_z
_atom_site_charge
Nd1	Nd	0.430380	0.768850	0.797990	2.261177
Nd2	Nd	0.930380	0.731150	0.702010	2.261177
Nd3	Nd	0.569620	0.231150	0.202010	2.261177
Nd4	Nd	0.069620	0.268850	0.297990	2.261177
Zn1	Zn	0.861460	0.300990	0.663420	0.966004
Zn2	Zn	0.361460	0.199010	0.836580	0.966004
Zn3	Zn	0.138540	0.699010	0.336580	0.966004
Zn4	Zn	0.638540	0.800990	0.163420	0.966004
H1	H	0.006200	0.940800	0.152600	0.100410
H2	H	0.900200	0.820800	0.055900	0.102121
H3	H	0.019700	0.778600	0.954500	0.100410
H4	H	0.349700	0.982000	0.046800	0.104046
H5	H	0.624200	0.104200	0.721000	0.070683
H6	H	0.506200	0.559200	0.347400	0.100410
H7	H	0.400200	0.679200	0.444100	0.102121
H8	H	0.519700	0.721400	0.545500	0.100410
H9	H	0.849700	0.518000	0.453200	0.104046
H10	H	0.124200	0.395800	0.779000	0.070683
H11	H	0.993800	0.059200	0.847400	0.100410
H12	H	0.099800	0.179200	0.944100	0.102121
H13	H	0.980300	0.221400	0.045500	0.100410
H14	H	0.650300	0.018000	0.953200	0.104046
H15	H	0.375800	0.895800	0.279000	0.070683
H16	H	0.493800	0.440800	0.652600	0.100410
H17	H	0.599800	0.320800	0.555900	0.102121
H18	H	0.480300	0.278600	0.454500	0.100410
H19	H	0.150300	0.482000	0.546800	0.104046
H20	H	0.875800	0.604200	0.221000	0.070683
C1	C	0.188200	0.972900	0.110100	-0.164787
C2	C	0.054400	0.924500	0.111800	-0.019780
C3	C	0.990800	0.852400	0.054000	-0.133436
C4	C	0.062000	0.827500	0.993500	-0.019780
C5	C	0.196000	0.875080	0.990780	-0.164787
C6	C	0.259800	0.948890	0.048890	0.024896
C7	C	0.274500	0.845460	0.925260	0.769810
C8	C	0.256500	0.050920	0.174120	0.769810
C9	C	0.706500	0.532930	0.738930	0.739442
C10	C	0.641200	0.411760	0.753160	0.004159
C11	C	0.538900	0.386840	0.796240	0.004690
C12	C	0.451900	0.473050	0.848550	0.701643
C13	C	0.613700	0.196300	0.737800	0.328395
C14	C	0.688200	0.527100	0.389900	-0.164787
C15	C	0.554400	0.575500	0.388200	-0.019780
C16	C	0.490800	0.647600	0.446000	-0.133436
C17	C	0.562000	0.672500	0.506500	-0.019780
C18	C	0.696000	0.624920	0.509220	-0.164787
C19	C	0.759800	0.551110	0.451110	0.024896
C20	C	0.774500	0.654540	0.574740	0.769810
C21	C	0.756500	0.449080	0.325880	0.769810
C22	C	0.206500	0.967070	0.761070	0.739442
C23	C	0.141200	0.088240	0.746840	0.004159
C24	C	0.038900	0.113160	0.703760	0.004690
C25	C	0.951900	0.026950	0.651450	0.701643
C26	C	0.113700	0.303700	0.762200	0.328395
C27	C	0.811800	0.027100	0.889900	-0.164787
C28	C	0.945600	0.075500	0.888200	-0.019780
C29	C	0.009200	0.147600	0.946000	-0.133436
C30	C	0.938000	0.172500	0.006500	-0.019780
C31	C	0.804000	0.124920	0.009220	-0.164787
C32	C	0.740200	0.051110	0.951110	0.024896
C33	C	0.725500	0.154540	0.074740	0.769810
C34	C	0.743500	0.949080	0.825880	0.769810
C35	C	0.293500	0.467070	0.261070	0.739442
C36	C	0.358800	0.588240	0.246840	0.004159
C37	C	0.461100	0.613160	0.203760	0.004690
C38	C	0.548100	0.526950	0.151450	0.701643
C39	C	0.386300	0.803700	0.262200	0.328395
C40	C	0.311800	0.472900	0.610100	-0.164787
C41	C	0.445600	0.424500	0.611800	-0.019780
C42	C	0.509200	0.352400	0.554000	-0.133436
C43	C	0.438000	0.327500	0.493500	-0.019780
C44	C	0.304000	0.375080	0.490780	-0.164787
C45	C	0.240200	0.448890	0.548890	0.024896
C46	C	0.225500	0.345460	0.425260	0.769810
C47	C	0.243500	0.550920	0.674120	0.769810
C48	C	0.793500	0.032930	0.238930	0.739442
C49	C	0.858800	0.911760	0.253160	0.004159
C50	C	0.961100	0.886840	0.296240	0.004690
C51	C	0.048100	0.973050	0.348550	0.701643
C52	C	0.886300	0.696300	0.237800	0.328395
N1	N	0.687800	0.289440	0.716240	-0.419658
N2	N	0.523000	0.249540	0.786040	-0.420843
N3	N	0.187800	0.210560	0.783760	-0.419658
N4	N	0.023000	0.250460	0.713960	-0.420843
N5	N	0.312200	0.710560	0.283760	-0.419658
N6	N	0.477000	0.750460	0.213960	-0.420843
N7	N	0.812200	0.789440	0.216240	-0.419658
N8	N	0.977000	0.749540	0.286040	-0.420843
O1	O	0.218900	0.772280	0.873280	-0.745614
O2	O	0.396300	0.892120	0.922020	-0.745614
O3	O	0.382700	0.078110	0.171110	-0.745614
O4	O	0.181900	0.082490	0.226690	-0.745614
O5	O	0.659600	0.648420	0.759420	-0.684510
O6	O	0.817500	0.510530	0.702830	-0.729409
O7	O	0.471600	0.599260	0.862960	-0.725527
O8	O	0.363500	0.414360	0.877760	-0.582720
O9	O	0.718900	0.727720	0.626720	-0.745614
O10	O	0.896300	0.607880	0.577980	-0.745614
O11	O	0.882700	0.421890	0.328890	-0.745614
O12	O	0.681900	0.417510	0.273310	-0.745614
O13	O	0.159600	0.851580	0.740580	-0.684510
O14	O	0.317500	0.989470	0.797170	-0.729409
O15	O	0.971600	0.900740	0.637040	-0.725527
O16	O	0.863500	0.085640	0.622240	-0.582720
O17	O	0.781100	0.227720	0.126720	-0.745614
O18	O	0.603700	0.107880	0.077980	-0.745614
O19	O	0.617300	0.921890	0.828890	-0.745614
O20	O	0.818100	0.917510	0.773310	-0.745614
O21	O	0.340400	0.351580	0.240580	-0.684510
O22	O	0.182500	0.489470	0.297170	-0.729409
O23	O	0.528400	0.400740	0.137040	-0.725527
O24	O	0.636500	0.585640	0.122240	-0.582720
O25	O	0.281100	0.272280	0.373280	-0.745614
O26	O	0.103700	0.392120	0.422020	-0.745614
O27	O	0.117300	0.578110	0.671110	-0.745614
O28	O	0.318100	0.582490	0.726690	-0.745614
O29	O	0.840400	0.148420	0.259420	-0.684510
O30	O	0.682500	0.010530	0.202830	-0.729409
O31	O	0.028400	0.099260	0.362960	-0.725527
O32	O	0.136500	0.914360	0.377760	-0.582720
