data_UZUNAF01_clean_PM
_symmetry_space_group_name_H-M	'P1'
_cell_length_a	8.641000
_cell_length_b	13.153000
_cell_length_c	15.301800
_cell_angle_alpha	115.453998
_cell_angle_beta	94.964699
_cell_angle_gamma	89.999999
_symmetry_Int_Tables_number 1

loop_
_symmetry_equiv_pos_as_xyz
'x,y,z'

loop_
_atom_site_label
_atom_site_type_symbol
_atom_site_fract_x
_atom_site_fract_y
_atom_site_fract_z
_atom_site_charge
Cu1	Cu	0.038100	0.914870	0.420960	0.827626
Cu2	Cu	0.461900	0.493910	0.579040	0.827626
Cu3	Cu	0.961900	0.085130	0.579040	0.827626
Cu4	Cu	0.538100	0.506090	0.420960	0.827626
H1	H	0.176300	0.864100	0.227000	0.077869
H2	H	0.317700	0.735800	0.115000	0.124041
H3	H	0.273700	0.534900	0.245200	0.124041
H4	H	0.130700	0.668200	0.353800	0.077869
H5	H	0.403900	0.461800	0.096800	0.085712
H6	H	0.493700	0.924700	0.383200	0.124432
H7	H	0.568200	0.940500	0.299800	0.124432
H8	H	0.394700	0.085700	0.371600	0.068194
H9	H	0.488900	0.122300	0.473400	0.068194
H10	H	0.707000	0.166500	0.407400	0.124432
H11	H	0.598000	0.143900	0.313400	0.124432
H12	H	0.323700	0.637100	0.773000	0.077869
H13	H	0.182300	0.620800	0.885000	0.124041
H14	H	0.226300	0.289700	0.754800	0.124041
H15	H	0.369300	0.314400	0.646200	0.077869
H16	H	0.096100	0.365000	0.903200	0.085712
H17	H	0.006300	0.541500	0.616800	0.124432
H18	H	0.931800	0.640700	0.700200	0.124432
H19	H	0.105300	0.714100	0.628400	0.068194
H20	H	0.011100	0.648900	0.526600	0.068194
H21	H	0.793000	0.759100	0.592600	0.124432
H22	H	0.902000	0.830500	0.686600	0.124432
H23	H	0.823700	0.135900	0.773000	0.077869
H24	H	0.682300	0.264200	0.885000	0.124041
H25	H	0.726300	0.465100	0.754800	0.124041
H26	H	0.869300	0.331800	0.646200	0.077869
H27	H	0.596100	0.538200	0.903200	0.085712
H28	H	0.506300	0.075300	0.616800	0.124432
H29	H	0.431800	0.059500	0.700200	0.124432
H30	H	0.605300	0.914300	0.628400	0.068194
H31	H	0.511100	0.877700	0.526600	0.068194
H32	H	0.293000	0.833500	0.592600	0.124432
H33	H	0.402000	0.856100	0.686600	0.124432
H34	H	0.676300	0.362900	0.227000	0.077869
H35	H	0.817700	0.379200	0.115000	0.124041
H36	H	0.773700	0.710300	0.245200	0.124041
H37	H	0.630700	0.685600	0.353800	0.077869
H38	H	0.903900	0.635000	0.096800	0.085712
H39	H	0.993700	0.458500	0.383200	0.124432
H40	H	0.068200	0.359300	0.299800	0.124432
H41	H	0.894700	0.285900	0.371600	0.068194
H42	H	0.988900	0.351100	0.473400	0.068194
H43	H	0.207000	0.240900	0.407400	0.124432
H44	H	0.098000	0.169500	0.313400	0.124432
C1	C	0.196200	0.796700	0.231000	0.162359
C2	C	0.280500	0.720000	0.163400	-0.181711
C3	C	0.310500	0.619470	0.166740	0.061583
C4	C	0.254500	0.601680	0.239760	-0.181711
C5	C	0.169800	0.682400	0.305200	0.162359
C6	C	0.396700	0.531700	0.095400	0.137520
C7	C	0.724500	0.974900	0.418800	0.687529
C8	C	0.563500	0.972700	0.369600	-0.340185
C9	C	0.497900	0.091400	0.404200	-0.013486
C10	C	0.600800	0.170500	0.383200	-0.340185
C11	C	0.057200	0.134100	0.427000	0.687529
C12	C	0.303800	0.565700	0.769000	0.162359
C13	C	0.219500	0.556600	0.836600	-0.181711
C14	C	0.189500	0.452730	0.833260	0.061583
C15	C	0.245500	0.361920	0.760240	-0.181711
C16	C	0.330200	0.377200	0.694800	0.162359
C17	C	0.103300	0.436300	0.904600	0.137520
C18	C	0.775500	0.556100	0.581200	0.687529
C19	C	0.936500	0.603100	0.630400	-0.340185
C20	C	0.002100	0.687200	0.595800	-0.013486
C21	C	0.899200	0.787300	0.616800	-0.340185
C22	C	0.442800	0.707100	0.573000	0.687529
C23	C	0.803800	0.203300	0.769000	0.162359
C24	C	0.719500	0.280000	0.836600	-0.181711
C25	C	0.689500	0.380530	0.833260	0.061583
C26	C	0.745500	0.398320	0.760240	-0.181711
C27	C	0.830200	0.317600	0.694800	0.162359
C28	C	0.603300	0.468300	0.904600	0.137520
C29	C	0.275500	0.025100	0.581200	0.687529
C30	C	0.436500	0.027300	0.630400	-0.340185
C31	C	0.502100	0.908600	0.595800	-0.013486
C32	C	0.399200	0.829500	0.616800	-0.340185
C33	C	0.942800	0.865900	0.573000	0.687529
C34	C	0.696200	0.434300	0.231000	0.162359
C35	C	0.780500	0.443400	0.163400	-0.181711
C36	C	0.810500	0.547270	0.166740	0.061583
C37	C	0.754500	0.638080	0.239760	-0.181711
C38	C	0.669800	0.622800	0.305200	0.162359
C39	C	0.896700	0.563700	0.095400	0.137520
C40	C	0.224500	0.443900	0.418800	0.687529
C41	C	0.063500	0.396900	0.369600	-0.340185
C42	C	0.997900	0.312800	0.404200	-0.013486
C43	C	0.100800	0.212700	0.383200	-0.340185
C44	C	0.557200	0.292900	0.427000	0.687529
N1	N	0.141100	0.780220	0.302040	-0.307563
N2	N	0.462400	0.549000	0.030800	-0.225325
N3	N	0.358900	0.478180	0.697960	-0.307563
N4	N	0.037600	0.518200	0.969200	-0.225325
N5	N	0.858900	0.219780	0.697960	-0.307563
N6	N	0.537600	0.451000	0.969200	-0.225325
N7	N	0.641100	0.521820	0.302040	-0.307563
N8	N	0.962400	0.481800	0.030800	-0.225325
O1	O	0.818800	0.905490	0.368180	-0.564998
O2	O	0.074100	0.031100	0.375400	-0.564998
O3	O	0.756000	0.046410	0.504220	-0.564998
O4	O	0.013100	0.175170	0.509340	-0.564998
O5	O	0.681200	0.537310	0.631820	-0.564998
O6	O	0.425900	0.655700	0.624600	-0.564998
O7	O	0.744000	0.542190	0.495780	-0.564998
O8	O	0.486900	0.665830	0.490660	-0.564998
O9	O	0.181200	0.094510	0.631820	-0.564998
O10	O	0.925900	0.968900	0.624600	-0.564998
O11	O	0.244000	0.953590	0.495780	-0.564998
O12	O	0.986900	0.824830	0.490660	-0.564998
O13	O	0.318800	0.462690	0.368180	-0.564998
O14	O	0.574100	0.344300	0.375400	-0.564998
O15	O	0.256000	0.457810	0.504220	-0.564998
O16	O	0.513100	0.334170	0.509340	-0.564998
