data_VAGTAA_clean_PM
_symmetry_space_group_name_H-M	'P1'
_cell_length_a	9.585600
_cell_length_b	10.026300
_cell_length_c	10.026300
_cell_angle_alpha	72.856000
_cell_angle_beta	70.667100
_cell_angle_gamma	70.666999
_symmetry_Int_Tables_number 1

loop_
_symmetry_equiv_pos_as_xyz
'x,y,z'

loop_
_atom_site_label
_atom_site_type_symbol
_atom_site_fract_x
_atom_site_fract_y
_atom_site_fract_z
_atom_site_charge
Mg1	Mg	0.500000	0.000000	0.000000	1.573552
Mg2	Mg	0.000000	0.000000	0.000000	1.573552
H1	H	0.634800	0.670400	0.866600	0.130903
H2	H	0.152600	0.661200	0.108400	0.397299
H3	H	0.865200	0.133400	0.329600	0.130903
H4	H	0.347400	0.891600	0.338800	0.397299
H5	H	0.365200	0.329600	0.133400	0.130903
H6	H	0.847400	0.338800	0.891600	0.397299
H7	H	0.134800	0.866600	0.670400	0.130903
H8	H	0.652600	0.108400	0.661200	0.397299
C1	C	0.342800	0.804200	0.951600	0.814134
C2	C	0.422500	0.646700	0.977700	-0.222287
C3	C	0.580700	0.601700	0.919700	-0.147859
C4	C	0.342800	0.542000	0.060600	0.309341
C5	C	0.157200	0.048400	0.195800	0.814134
C6	C	0.077500	0.022300	0.353300	-0.222287
C7	C	0.919300	0.080300	0.398300	-0.147859
C8	C	0.157200	0.939400	0.458000	0.309341
C9	C	0.657200	0.195800	0.048400	0.814134
C10	C	0.577500	0.353300	0.022300	-0.222287
C11	C	0.419300	0.398300	0.080300	-0.147859
C12	C	0.657200	0.458000	0.939400	0.309341
C13	C	0.842800	0.951600	0.804200	0.814134
C14	C	0.922500	0.977700	0.646700	-0.222287
C15	C	0.080700	0.919700	0.601700	-0.147859
C16	C	0.842800	0.060600	0.542000	0.309341
O1	O	0.419800	0.895000	0.902600	-0.769450
O2	O	0.196800	0.835800	0.980000	-0.769450
O3	O	0.189000	0.573500	0.125900	-0.529407
O4	O	0.080200	0.097400	0.105000	-0.769450
O5	O	0.303200	0.020000	0.164200	-0.769450
O6	O	0.311000	0.874100	0.426500	-0.529407
O7	O	0.580200	0.105000	0.097400	-0.769450
O8	O	0.803200	0.164200	0.020000	-0.769450
O9	O	0.811000	0.426500	0.874100	-0.529407
O10	O	0.919800	0.902600	0.895000	-0.769450
O11	O	0.696800	0.980000	0.835800	-0.769450
O12	O	0.689000	0.125900	0.573500	-0.529407
