data_VAHPUR_clean_PM
_symmetry_space_group_name_H-M	'P1'
_cell_length_a	16.043000
_cell_length_b	19.722700
_cell_length_c	19.722700
_cell_angle_alpha	80.478499
_cell_angle_beta	66.001300
_cell_angle_gamma	66.001399
_symmetry_Int_Tables_number 1

loop_
_symmetry_equiv_pos_as_xyz
'x,y,z'

loop_
_atom_site_label
_atom_site_type_symbol
_atom_site_fract_x
_atom_site_fract_y
_atom_site_fract_z
_atom_site_charge
Dy1	Dy	0.959110	0.884570	0.701620	2.185397
Dy2	Dy	0.545290	0.115440	0.298380	2.185397
Dy3	Dy	0.156330	0.298380	0.884560	2.185397
Dy4	Dy	0.339260	0.701630	0.115440	2.185397
Cu1	Cu	0.612700	0.187230	0.590710	0.369761
Cu2	Cu	0.390640	0.812770	0.409290	0.369761
Cu3	Cu	0.200070	0.409290	0.187230	0.369761
Cu4	Cu	0.796590	0.590710	0.812770	0.369761
H1	H	0.119500	0.067800	0.582600	0.099025
H2	H	0.238500	0.115900	0.557100	0.104084
H3	H	0.223500	0.924000	0.724800	0.099025
H4	H	0.336400	0.973700	0.702500	0.104084
H5	H	0.415000	0.102500	0.505700	0.126985
H6	H	0.534200	0.144800	0.492800	0.078664
H7	H	0.359300	0.079500	0.724100	0.126985
H8	H	0.474500	0.127700	0.704500	0.078664
H9	H	0.843000	0.767700	0.584700	0.099431
H10	H	0.734300	0.753100	0.546300	0.104084
H11	H	0.683500	0.984600	0.614600	0.099431
H12	H	0.572400	0.971500	0.575300	0.104084
H13	H	0.570700	0.753800	0.577000	0.126985
H14	H	0.465600	0.742300	0.531500	0.078664
H15	H	0.539900	0.949900	0.476700	0.126985
H16	H	0.431400	0.936200	0.436600	0.078664
H17	H	0.110700	0.628800	0.759600	0.099025
H18	H	0.219600	0.505900	0.736900	0.104084
H19	H	0.276100	0.687900	0.563300	0.099025
H20	H	0.383500	0.567000	0.542200	0.104084
H21	H	0.286500	0.399200	0.652000	0.126985
H22	H	0.400600	0.278500	0.627500	0.078664
H23	H	0.511300	0.465500	0.590700	0.126985
H24	H	0.616500	0.344900	0.573500	0.078664
H25	H	0.827500	0.921400	0.964600	0.099431
H26	H	0.732500	0.912200	0.088200	0.104084
H27	H	0.687500	0.832500	0.905100	0.099431
H28	H	0.605500	0.810900	0.028300	0.104084
H29	H	0.573700	0.946400	0.190600	0.126985
H30	H	0.481700	0.927100	0.309700	0.078664
H31	H	0.618200	0.742500	0.142100	0.126985
H32	H	0.522700	0.729800	0.262600	0.078664
H33	H	0.769900	0.932200	0.417400	0.099025
H34	H	0.911500	0.884100	0.442900	0.104084
H35	H	0.872300	0.076000	0.275200	0.099025
H36	H	0.012600	0.026300	0.297500	0.104084
H37	H	0.023200	0.897500	0.494300	0.126985
H38	H	0.171800	0.855200	0.507200	0.078664
H39	H	0.162900	0.920500	0.275900	0.126985
H40	H	0.306700	0.872300	0.295500	0.078664
H41	H	0.195400	0.232300	0.415300	0.099431
H42	H	0.033700	0.246900	0.453700	0.104084
H43	H	0.282700	0.015400	0.385400	0.099431
H44	H	0.119200	0.028500	0.424700	0.104084
H45	H	0.901500	0.246200	0.423000	0.126985
H46	H	0.739400	0.257700	0.468500	0.078664
H47	H	0.966500	0.050100	0.523300	0.126985
H48	H	0.804200	0.063800	0.563400	0.078664
H49	H	0.499100	0.371200	0.240400	0.099025
H50	H	0.462400	0.494100	0.263100	0.104084
H51	H	0.527300	0.312100	0.436700	0.099025
H52	H	0.492700	0.433000	0.457800	0.104084
H53	H	0.337700	0.600800	0.348000	0.126985
H54	H	0.306600	0.721500	0.372500	0.078664
H55	H	0.567500	0.534500	0.409300	0.126985
H56	H	0.534900	0.655100	0.426500	0.078664
H57	H	0.713500	0.078600	0.035400	0.099431
H58	H	0.732900	0.087800	0.911800	0.104084
H59	H	0.425100	0.167500	0.094900	0.099431
H60	H	0.444700	0.189100	0.971700	0.104084
H61	H	0.710700	0.053600	0.809400	0.126985
H62	H	0.718500	0.072900	0.690300	0.078664
H63	H	0.502800	0.257500	0.857900	0.126985
H64	H	0.515100	0.270200	0.737400	0.078664
H65	H	0.812700	0.417400	0.067800	0.099025
H66	H	0.645600	0.442900	0.115900	0.104084
H67	H	0.852500	0.275200	0.924000	0.099025
H68	H	0.689900	0.297500	0.973700	0.104084
H69	H	0.482500	0.494300	0.102500	0.126985
H70	H	0.321000	0.507200	0.144800	0.078664
H71	H	0.561200	0.275900	0.079500	0.126985
H72	H	0.397800	0.295500	0.127700	0.078664
H73	H	0.389300	0.415300	0.767700	0.099431
H74	H	0.512600	0.453700	0.753100	0.104084
H75	H	0.331900	0.385400	0.984600	0.099431
H76	H	0.456100	0.424700	0.971500	0.104084
H77	H	0.675500	0.423000	0.753800	0.126985
H78	H	0.792100	0.468500	0.742300	0.078664
H79	H	0.510200	0.523300	0.949900	0.126985
H80	H	0.632400	0.563400	0.936200	0.078664
H81	H	0.260500	0.240400	0.628800	0.099025
H82	H	0.274500	0.263100	0.505900	0.104084
H83	H	0.036000	0.436700	0.687900	0.099025
H84	H	0.049500	0.457800	0.567000	0.104084
H85	H	0.314300	0.348000	0.399200	0.126985
H86	H	0.320900	0.372500	0.278500	0.078664
H87	H	0.023200	0.409300	0.465500	0.126985
H88	H	0.038600	0.426500	0.344900	0.078664
H89	H	0.251100	0.035400	0.921400	0.099431
H90	H	0.355300	0.911800	0.912200	0.104084
H91	H	0.480000	0.094900	0.832500	0.099431
H92	H	0.583600	0.971700	0.810900	0.104084
H93	H	0.479900	0.809400	0.946400	0.126985
H94	H	0.591200	0.690300	0.927100	0.078664
H95	H	0.639300	0.857900	0.742500	0.126985
H96	H	0.747500	0.737400	0.729800	0.078664
H97	H	0.297900	0.582600	0.932200	0.099025
H98	H	0.204400	0.557100	0.884100	0.104084
H99	H	0.051700	0.724800	0.076000	0.099025
H100	H	0.961100	0.702500	0.026300	0.104084
H101	H	0.079300	0.505700	0.897500	0.126985
H102	H	0.973000	0.492800	0.855200	0.078664
H103	H	0.916600	0.724100	0.920500	0.126985
H104	H	0.821000	0.704500	0.872300	0.078664
H105	H	0.572300	0.584700	0.232300	0.099431
H106	H	0.719400	0.546300	0.246900	0.104084
H107	H	0.701900	0.614600	0.015400	0.099431
H108	H	0.852300	0.575300	0.028500	0.104084
H109	H	0.852300	0.577000	0.246200	0.126985
H110	H	0.002900	0.531500	0.257700	0.078664
H111	H	0.983400	0.476700	0.050100	0.126985
H112	H	0.132000	0.436600	0.063800	0.078664
H113	H	0.129700	0.759600	0.371200	0.099025
H114	H	0.043500	0.736900	0.494100	0.104084
H115	H	0.160600	0.563300	0.312100	0.099025
H116	H	0.074300	0.542200	0.433000	0.104084
H117	H	0.061500	0.652000	0.600800	0.126985
H118	H	0.971900	0.627500	0.721500	0.078664
H119	H	0.898000	0.590700	0.534500	0.126985
H120	H	0.810000	0.573500	0.655100	0.078664
H121	H	0.207900	0.964600	0.078600	0.099431
H122	H	0.179300	0.088200	0.087800	0.104084
H123	H	0.407400	0.905100	0.167500	0.099431
H124	H	0.366200	0.028300	0.189100	0.104084
H125	H	0.235700	0.190600	0.053600	0.126985
H126	H	0.208600	0.309700	0.072900	0.078664
H127	H	0.239700	0.142100	0.257500	0.126985
H128	H	0.214700	0.262600	0.270200	0.078664
C1	C	0.083400	0.956800	0.671800	0.726355
C2	C	0.160500	0.989500	0.653500	-0.142501
C3	C	0.164500	0.047800	0.605800	-0.023394
C4	C	0.235000	0.077700	0.591500	-0.148194
C5	C	0.226200	0.962600	0.691000	-0.023394
C6	C	0.293100	0.992800	0.677600	-0.148194
C7	C	0.300300	0.051200	0.628200	0.034060
C8	C	0.373200	0.082900	0.617300	0.098377
C9	C	0.427470	0.105160	0.547100	-0.196526
C10	C	0.499300	0.130900	0.539700	0.156134
C11	C	0.393500	0.092000	0.676200	-0.196526
C12	C	0.465000	0.120000	0.663400	0.156134
C13	C	0.849500	0.884200	0.625200	0.583396
C14	C	0.775340	0.878030	0.601090	-0.102539
C15	C	0.788700	0.808800	0.582200	-0.032530
C16	C	0.723100	0.799900	0.559900	-0.145456
C17	C	0.694100	0.938300	0.600100	-0.032530
C18	C	0.626600	0.930000	0.577200	-0.145456
C19	C	0.639200	0.860700	0.557300	0.034060
C20	C	0.568100	0.852940	0.532060	0.098377
C21	C	0.544400	0.791400	0.547600	-0.196526
C22	C	0.480900	0.784600	0.519600	0.156134
C23	C	0.525700	0.907200	0.488800	-0.196526
C24	C	0.461500	0.897900	0.463500	0.156134
C25	C	0.107800	0.748100	0.677500	0.726355
C26	C	0.180800	0.670800	0.663400	-0.142501
C27	C	0.165500	0.616200	0.715400	-0.023394
C28	C	0.231400	0.542500	0.702300	-0.148194
C29	C	0.264100	0.651800	0.598400	-0.023394
C30	C	0.328600	0.579300	0.586300	-0.148194
C31	C	0.314500	0.524200	0.637400	0.034060
C32	C	0.385500	0.446200	0.623400	0.098377
C33	C	0.353500	0.389700	0.634900	-0.196526
C34	C	0.423300	0.316700	0.620500	0.156134
C35	C	0.486700	0.428200	0.599200	-0.196526
C36	C	0.549500	0.355600	0.588200	0.156134
C37	C	0.818600	0.894100	0.841700	0.583396
C38	C	0.763100	0.883100	0.922700	-0.102539
C39	C	0.779000	0.902100	0.976900	-0.032530
C40	C	0.724700	0.893800	0.051600	-0.145456
C41	C	0.698100	0.847900	0.941900	-0.032530
C42	C	0.648200	0.835600	0.016000	-0.145456
C43	C	0.660600	0.859300	0.071100	0.034060
C44	C	0.605700	0.847100	0.150300	0.098377
C45	C	0.564200	0.901700	0.203500	-0.196526
C46	C	0.508800	0.889600	0.275200	0.156134
C47	C	0.590000	0.781600	0.175000	-0.196526
C48	C	0.532900	0.774000	0.248000	0.156134
C49	C	0.712000	0.043200	0.328200	0.726355
C50	C	0.803500	0.010500	0.346500	-0.142501
C51	C	0.818100	0.952200	0.394200	-0.023394
C52	C	0.904200	0.922300	0.408500	-0.148194
C53	C	0.879800	0.037400	0.309000	-0.023394
C54	C	0.963500	0.007200	0.322400	-0.148194
C55	C	0.979700	0.948800	0.371800	0.034060
C56	C	0.073400	0.917100	0.382700	0.098377
C57	C	0.079730	0.894840	0.452900	-0.196526
C58	C	0.169900	0.869100	0.460300	0.156134
C59	C	0.161700	0.908000	0.323800	-0.196526
C60	C	0.248400	0.880000	0.336600	0.156134
C61	C	0.358900	0.115800	0.374800	0.583396
C62	C	0.254460	0.121970	0.398910	-0.102539
C63	C	0.179700	0.191200	0.417800	-0.032530
C64	C	0.082900	0.200100	0.440100	-0.145456
C65	C	0.232500	0.061700	0.399900	-0.032530
C66	C	0.133800	0.070000	0.422800	-0.145456
C67	C	0.057200	0.139300	0.442700	0.034060
C68	C	0.953100	0.147060	0.467940	0.098377
C69	C	0.883400	0.208600	0.452400	-0.196526
C70	C	0.785100	0.215400	0.480400	0.156134
C71	C	0.921700	0.092800	0.511200	-0.196526
C72	C	0.822900	0.102100	0.536500	0.156134
C73	C	0.533400	0.251900	0.322500	0.726355
C74	C	0.515000	0.329200	0.336600	-0.142501
C75	C	0.497100	0.383800	0.284600	-0.023394
C76	C	0.476200	0.457500	0.297700	-0.148194
C77	C	0.514300	0.348200	0.401600	-0.023394
C78	C	0.494200	0.420700	0.413700	-0.148194
C79	C	0.476100	0.475800	0.362600	0.034060
C80	C	0.455100	0.553800	0.376600	0.098377
C81	C	0.378100	0.610300	0.365100	-0.196526
C82	C	0.360500	0.683300	0.379500	0.156134
C83	C	0.514100	0.571800	0.400800	-0.196526
C84	C	0.493300	0.644400	0.411800	0.156134
C85	C	0.554400	0.105900	0.158300	0.583396
C86	C	0.568900	0.116900	0.077300	-0.102539
C87	C	0.658000	0.097900	0.023100	-0.032530
C88	C	0.670100	0.106200	0.948400	-0.145456
C89	C	0.487900	0.152100	0.058100	-0.032530
C90	C	0.499800	0.164400	0.984000	-0.145456
C91	C	0.591000	0.140700	0.928900	0.034060
C92	C	0.603100	0.152900	0.849700	0.098377
C93	C	0.669400	0.098300	0.796500	-0.196526
C94	C	0.673600	0.110400	0.724800	0.156134
C95	C	0.546600	0.218400	0.825000	-0.196526
C96	C	0.554900	0.226000	0.752000	0.156134
C97	C	0.959800	0.328200	0.956800	0.726355
C98	C	0.850000	0.346500	0.989500	-0.142501
C99	C	0.787700	0.394200	0.047800	-0.023394
C100	C	0.687300	0.408500	0.077700	-0.148194
C101	C	0.811200	0.309000	0.962600	-0.023394
C102	C	0.714100	0.322400	0.992800	-0.148194
C103	C	0.648500	0.371800	0.051200	0.034060
C104	C	0.543900	0.382700	0.082900	0.098377
C105	C	0.467370	0.452900	0.105160	-0.196526
C106	C	0.369800	0.460300	0.130900	0.156134
C107	C	0.514500	0.323800	0.092000	-0.196526
C108	C	0.415000	0.336600	0.120000	0.156134
C109	C	0.266300	0.374800	0.884200	0.583396
C110	C	0.346630	0.398910	0.878030	-0.102539
C111	C	0.402500	0.417800	0.808800	-0.032530
C112	C	0.477000	0.440100	0.799900	-0.145456
C113	C	0.367600	0.399900	0.938300	-0.032530
C114	C	0.443400	0.422800	0.930000	-0.145456
C115	C	0.500100	0.442700	0.860700	0.034060
C116	C	0.578960	0.467940	0.852940	0.098377
C117	C	0.664200	0.452400	0.791400	-0.196526
C118	C	0.734500	0.480400	0.784600	0.156134
C119	C	0.567100	0.511200	0.907200	-0.196526
C120	C	0.640600	0.536500	0.897900	0.156134
C121	C	0.144100	0.322500	0.748100	0.726355
C122	C	0.148400	0.336600	0.670800	-0.142501
C123	C	0.218300	0.284600	0.616200	-0.023394
C124	C	0.226100	0.297700	0.542500	-0.148194
C125	C	0.084100	0.401600	0.651800	-0.023394
C126	C	0.092100	0.413700	0.579300	-0.148194
C127	C	0.161300	0.362600	0.524200	0.034060
C128	C	0.168300	0.376600	0.446200	0.098377
C129	C	0.256800	0.365100	0.389700	-0.196526
C130	C	0.260000	0.379500	0.316700	0.156134
C131	C	0.085100	0.400800	0.428200	-0.196526
C132	C	0.094900	0.411800	0.355600	0.156134
C133	C	0.287300	0.158300	0.894100	0.583396
C134	C	0.353800	0.077300	0.883100	-0.102539
C135	C	0.318900	0.023100	0.902100	-0.032530
C136	C	0.381500	0.948400	0.893800	-0.145456
C137	C	0.454000	0.058100	0.847900	-0.032530
C138	C	0.516200	0.984000	0.835600	-0.145456
C139	C	0.480100	0.928900	0.859300	0.034060
C140	C	0.547200	0.849700	0.847100	0.098377
C141	C	0.534100	0.796500	0.901700	-0.196526
C142	C	0.601600	0.724800	0.889600	0.156134
C143	C	0.628400	0.825000	0.781600	-0.196526
C144	C	0.693100	0.752000	0.774000	0.156134
C145	C	0.244800	0.671800	0.043200	0.726355
C146	C	0.186000	0.653500	0.010500	-0.142501
C147	C	0.229700	0.605800	0.952200	-0.023394
C148	C	0.173500	0.591500	0.922300	-0.148194
C149	C	0.082800	0.691000	0.037400	-0.023394
C150	C	0.029300	0.677600	0.007200	-0.148194
C151	C	0.071500	0.628200	0.948800	0.034060
C152	C	0.009500	0.617300	0.917100	0.098377
C153	C	0.025430	0.547100	0.894840	-0.196526
C154	C	0.961000	0.539700	0.869100	0.156134
C155	C	0.930300	0.676200	0.908000	-0.196526
C156	C	0.871600	0.663400	0.880000	0.156134
C157	C	0.525300	0.625200	0.115800	0.583396
C158	C	0.623570	0.601090	0.121970	-0.102539
C159	C	0.629100	0.582200	0.191200	-0.032530
C160	C	0.717000	0.559900	0.200100	-0.145456
C161	C	0.705800	0.600100	0.061700	-0.032530
C162	C	0.796200	0.577200	0.070000	-0.145456
C163	C	0.803500	0.557300	0.139300	0.034060
C164	C	0.899840	0.532060	0.147060	0.098377
C165	C	0.908000	0.547600	0.208600	-0.196526
C166	C	0.999500	0.519600	0.215400	0.156134
C167	C	0.985500	0.488800	0.092800	-0.196526
C168	C	0.075000	0.463500	0.102100	0.156134
C169	C	0.214700	0.677500	0.251900	0.726355
C170	C	0.155800	0.663400	0.329200	-0.142501
C171	C	0.119100	0.715400	0.383800	-0.023394
C172	C	0.066300	0.702300	0.457500	-0.148194
C173	C	0.137500	0.598400	0.348200	-0.023394
C174	C	0.085100	0.586300	0.420700	-0.148194
C175	C	0.048100	0.637400	0.475800	0.034060
C176	C	0.991100	0.623400	0.553800	0.098377
C177	C	0.011600	0.634900	0.610300	-0.196526
C178	C	0.956200	0.620500	0.683300	0.156134
C179	C	0.914100	0.599200	0.571800	-0.196526
C180	C	0.862300	0.588200	0.644400	0.156134
C181	C	0.339700	0.841700	0.105900	0.583396
C182	C	0.314200	0.922700	0.116900	-0.102539
C183	C	0.244100	0.976900	0.097900	-0.032530
C184	C	0.223700	0.051600	0.106200	-0.145456
C185	C	0.360000	0.941900	0.152100	-0.032530
C186	C	0.335800	0.016000	0.164400	-0.145456
C187	C	0.268300	0.071100	0.140700	0.034060
C188	C	0.244000	0.150300	0.152900	0.098377
C189	C	0.232300	0.203500	0.098300	-0.196526
C190	C	0.216000	0.275200	0.110400	0.156134
C191	C	0.235000	0.175000	0.218400	-0.196526
C192	C	0.219100	0.248000	0.226000	0.156134
N1	N	0.521020	0.136860	0.597300	-0.279112
N2	N	0.441040	0.836100	0.476220	-0.279112
N3	N	0.520690	0.298660	0.597160	-0.279112
N4	N	0.491600	0.827020	0.298580	-0.279112
N5	N	0.255180	0.863140	0.402700	-0.279112
N6	N	0.753360	0.163900	0.523780	-0.279112
N7	N	0.416510	0.701340	0.402840	-0.279112
N8	N	0.617200	0.172980	0.701420	-0.279112
N9	N	0.342120	0.402700	0.136860	-0.279112
N10	N	0.722860	0.523780	0.836100	-0.279112
N11	N	0.180650	0.402840	0.298660	-0.279112
N12	N	0.681380	0.701420	0.827020	-0.279112
N13	N	0.881680	0.597300	0.863140	-0.279112
N14	N	0.082740	0.476220	0.163900	-0.279112
N15	N	0.882150	0.597160	0.701340	-0.279112
N16	N	0.209820	0.298580	0.172980	-0.279112
O1	O	0.075190	0.911250	0.724770	-0.725021
O2	O	0.029600	0.973810	0.635190	-0.725021
O3	O	0.837180	0.946500	0.645940	-0.687013
O4	O	0.921370	0.828230	0.626430	-0.687013
O5	O	0.115220	0.796500	0.626260	-0.725021
O6	O	0.035610	0.764430	0.739350	-0.725021
O7	O	0.816800	0.862400	0.793600	-0.687013
O8	O	0.871010	0.932990	0.823990	-0.687013
O9	O	0.711210	0.088750	0.275230	-0.725021
O10	O	0.638600	0.026190	0.364810	-0.725021
O11	O	0.429620	0.053500	0.354060	-0.687013
O12	O	0.376030	0.171770	0.373570	-0.687013
O13	O	0.537980	0.203500	0.373740	-0.725021
O14	O	0.539390	0.235570	0.260650	-0.725021
O15	O	0.472800	0.137600	0.206400	-0.687013
O16	O	0.627990	0.067010	0.176010	-0.687013
O17	O	0.013560	0.275230	0.911250	-0.725021
O18	O	0.996590	0.364810	0.973810	-0.725021
O19	O	0.216320	0.354060	0.946500	-0.687013
O20	O	0.250400	0.373570	0.828230	-0.687013
O21	O	0.088280	0.373740	0.796500	-0.725021
O22	O	0.199960	0.260650	0.764430	-0.725021
O23	O	0.320800	0.206400	0.862400	-0.687013
O24	O	0.196000	0.176010	0.932990	-0.687013
O25	O	0.200040	0.724770	0.088750	-0.725021
O26	O	0.335210	0.635190	0.026190	-0.725021
O27	O	0.516880	0.645940	0.053500	-0.687013
O28	O	0.452200	0.626430	0.171770	-0.687013
O29	O	0.258520	0.626260	0.203500	-0.725021
O30	O	0.225040	0.739350	0.235570	-0.725021
O31	O	0.389600	0.793600	0.137600	-0.687013
O32	O	0.305000	0.823990	0.067010	-0.687013
