data_VAHVOR_clean_PM
_symmetry_space_group_name_H-M	'P1'
_cell_length_a	13.476600
_cell_length_b	14.410100
_cell_length_c	15.989800
_cell_angle_alpha	116.781999
_cell_angle_beta	96.766400
_cell_angle_gamma	90.000002
_symmetry_Int_Tables_number 1

loop_
_symmetry_equiv_pos_as_xyz
'x,y,z'

loop_
_atom_site_label
_atom_site_type_symbol
_atom_site_fract_x
_atom_site_fract_y
_atom_site_fract_z
_atom_site_charge
Dy1	Dy	0.036730	0.523290	0.633440	2.273629
Dy2	Dy	0.463270	0.889850	0.366560	2.273629
Dy3	Dy	0.963270	0.476710	0.366560	2.273629
Dy4	Dy	0.536730	0.110150	0.633440	2.273629
H1	H	0.283400	0.298100	0.529200	0.104914
H2	H	0.424300	0.112000	0.312000	0.121547
H3	H	0.230600	0.309500	0.283600	0.121547
H4	H	0.408300	0.054400	0.030600	0.122417
H5	H	0.457900	0.023100	0.886400	0.102191
H6	H	0.403200	0.313600	0.934200	0.102191
H7	H	0.343400	0.340100	0.073400	0.122417
H8	H	0.216600	0.768900	0.470800	0.104914
H9	H	0.075700	0.800000	0.688000	0.121547
H10	H	0.269400	0.025900	0.716400	0.121547
H11	H	0.091700	0.023800	0.969400	0.122417
H12	H	0.042100	0.136700	0.113600	0.102191
H13	H	0.096800	0.379400	0.065800	0.102191
H14	H	0.156600	0.266700	0.926600	0.122417
H15	H	0.716600	0.701900	0.470800	0.104914
H16	H	0.575700	0.888000	0.688000	0.121547
H17	H	0.769400	0.690500	0.716400	0.121547
H18	H	0.591700	0.945600	0.969400	0.122417
H19	H	0.542100	0.976900	0.113600	0.102191
H20	H	0.596800	0.686400	0.065800	0.102191
H21	H	0.656600	0.659900	0.926600	0.122417
H22	H	0.783400	0.231100	0.529200	0.104914
H23	H	0.924300	0.200000	0.312000	0.121547
H24	H	0.730600	0.974100	0.283600	0.121547
H25	H	0.908300	0.976200	0.030600	0.122417
H26	H	0.957900	0.863300	0.886400	0.102191
H27	H	0.903200	0.620600	0.934200	0.102191
H28	H	0.843400	0.733300	0.073400	0.122417
C1	C	0.240700	0.313500	0.411400	-0.152114
C2	C	0.293400	0.273400	0.466400	0.017080
C3	C	0.360900	0.196900	0.429400	-0.147417
C4	C	0.378800	0.162900	0.337000	-0.057984
C5	C	0.330900	0.202700	0.282600	0.159925
C6	C	0.261900	0.280400	0.320400	-0.056188
C7	C	0.416000	0.156400	0.493800	0.755157
C8	C	0.165300	0.393000	0.449800	0.776805
C9	C	0.375700	0.204000	0.069200	0.203644
C10	C	0.407400	0.106900	0.011800	-0.152227
C11	C	0.438200	0.088800	0.925800	0.001087
C12	C	0.439800	0.165300	0.898200	-0.169800
C13	C	0.404400	0.261300	0.953200	0.001087
C14	C	0.370500	0.277200	0.037600	-0.152227
C15	C	0.478600	0.147800	0.806400	0.780417
C16	C	0.259300	0.902100	0.588600	-0.152114
C17	C	0.206600	0.807000	0.533600	0.017080
C18	C	0.139100	0.767500	0.570600	-0.147417
C19	C	0.121200	0.825900	0.663000	-0.057984
C20	C	0.169100	0.920100	0.717400	0.159925
C21	C	0.238100	0.960000	0.679600	-0.056188
C22	C	0.084000	0.662600	0.506200	0.755157
C23	C	0.334700	0.943200	0.550200	0.776805
C24	C	0.124300	0.134800	0.930800	0.203644
C25	C	0.092600	0.095100	0.988200	-0.152227
C26	C	0.061800	0.163000	0.074200	0.001087
C27	C	0.060200	0.267100	0.101800	-0.169800
C28	C	0.095600	0.308100	0.046800	0.001087
C29	C	0.129500	0.239600	0.962400	-0.152227
C30	C	0.021400	0.341400	0.193600	0.780417
C31	C	0.759300	0.686500	0.588600	-0.152114
C32	C	0.706600	0.726600	0.533600	0.017080
C33	C	0.639100	0.803100	0.570600	-0.147417
C34	C	0.621200	0.837100	0.663000	-0.057984
C35	C	0.669100	0.797300	0.717400	0.159925
C36	C	0.738100	0.719600	0.679600	-0.056188
C37	C	0.584000	0.843600	0.506200	0.755157
C38	C	0.834700	0.607000	0.550200	0.776805
C39	C	0.624300	0.796000	0.930800	0.203644
C40	C	0.592600	0.893100	0.988200	-0.152227
C41	C	0.561800	0.911200	0.074200	0.001087
C42	C	0.560200	0.834700	0.101800	-0.169800
C43	C	0.595600	0.738700	0.046800	0.001087
C44	C	0.629500	0.722800	0.962400	-0.152227
C45	C	0.521400	0.852200	0.193600	0.780417
C46	C	0.740700	0.097900	0.411400	-0.152114
C47	C	0.793400	0.193000	0.466400	0.017080
C48	C	0.860900	0.232500	0.429400	-0.147417
C49	C	0.878800	0.174100	0.337000	-0.057984
C50	C	0.830900	0.079900	0.282600	0.159925
C51	C	0.761900	0.040000	0.320400	-0.056188
C52	C	0.916000	0.337400	0.493800	0.755157
C53	C	0.665300	0.056800	0.449800	0.776805
C54	C	0.875700	0.865200	0.069200	0.203644
C55	C	0.907400	0.904900	0.011800	-0.152227
C56	C	0.938200	0.837000	0.925800	0.001087
C57	C	0.939800	0.732900	0.898200	-0.169800
C58	C	0.904400	0.691900	0.953200	0.001087
C59	C	0.870500	0.760400	0.037600	-0.152227
C60	C	0.978600	0.658600	0.806400	0.780417
N1	N	0.358500	0.170500	0.190000	-0.160392
N2	N	0.345100	0.233900	0.159200	-0.172326
N3	N	0.141500	0.980500	0.810000	-0.160392
N4	N	0.154900	0.074700	0.840800	-0.172326
N5	N	0.641500	0.829500	0.810000	-0.160392
N6	N	0.654900	0.766100	0.840800	-0.172326
N7	N	0.858500	0.019500	0.190000	-0.160392
N8	N	0.845100	0.925300	0.159200	-0.172326
O1	O	0.125000	0.430400	0.398800	-0.748002
O2	O	0.148900	0.417410	0.533020	-0.748002
O3	O	0.433600	0.212680	0.579760	-0.676774
O4	O	0.446700	0.065480	0.455360	-0.876597
O5	O	0.516700	0.063900	0.762200	-0.748002
O6	O	0.468000	0.214200	0.778800	-0.748002
O7	O	0.375000	0.031600	0.601200	-0.748002
O8	O	0.351100	0.884390	0.466980	-0.748002
O9	O	0.066400	0.632920	0.420240	-0.676774
O10	O	0.053300	0.610120	0.544640	-0.876597
O11	O	0.983300	0.301700	0.237800	-0.748002
O12	O	0.032000	0.435400	0.221200	-0.748002
O13	O	0.875000	0.569600	0.601200	-0.748002
O14	O	0.851100	0.582590	0.466980	-0.748002
O15	O	0.566400	0.787320	0.420240	-0.676774
O16	O	0.553300	0.934520	0.544640	-0.876597
O17	O	0.483300	0.936100	0.237800	-0.748002
O18	O	0.532000	0.785800	0.221200	-0.748002
O19	O	0.625000	0.968400	0.398800	-0.748002
O20	O	0.648900	0.115610	0.533020	-0.748002
O21	O	0.933600	0.367080	0.579760	-0.676774
O22	O	0.946700	0.389880	0.455360	-0.876597
O23	O	0.016700	0.698300	0.762200	-0.748002
O24	O	0.968000	0.564600	0.778800	-0.748002
