data_VAQLEG_clean_PM
_symmetry_space_group_name_H-M	'P1'
_cell_length_a	13.415001
_cell_length_b	13.415000
_cell_length_c	19.344712
_cell_angle_alpha	110.287348
_cell_angle_beta	110.287349
_cell_angle_gamma	89.999999
_symmetry_Int_Tables_number 1

loop_
_symmetry_equiv_pos_as_xyz
'x,y,z'

loop_
_atom_site_label
_atom_site_type_symbol
_atom_site_fract_x
_atom_site_fract_y
_atom_site_fract_z
_atom_site_charge
Cd1	Cd	0.778440	0.954970	0.510360	0.918219
Cd2	Cd	0.731920	0.555390	0.510360	0.918219
Cd3	Cd	0.045030	0.268080	0.489640	0.918219
Cd4	Cd	0.444610	0.221560	0.489640	0.918219
Cd5	Cd	0.018080	0.295030	0.989640	0.918219
Cd6	Cd	0.971560	0.694610	0.989640	0.918219
Cd7	Cd	0.305390	0.981920	0.010360	0.918219
Cd8	Cd	0.704970	0.028440	0.010360	0.918219
H1	H	0.699200	0.308900	0.601200	0.126084
H2	H	0.718900	0.275500	0.676200	0.126084
H3	H	0.548500	0.302900	0.725800	0.124813
H4	H	0.564500	0.187800	0.671600	0.124813
H5	H	0.509400	0.443500	0.655400	0.094509
H6	H	0.592000	0.436500	0.611600	0.094509
H7	H	0.717800	0.601000	0.918800	0.079320
H8	H	0.579700	0.506500	0.801600	0.129780
H9	H	0.784100	0.471500	0.690000	0.129780
H10	H	0.922700	0.555600	0.813000	0.079320
H11	H	0.902000	0.292300	0.601200	0.126084
H12	H	0.957300	0.400700	0.676200	0.126084
H13	H	0.177300	0.422900	0.725800	0.124813
H14	H	0.107100	0.483800	0.671600	0.124813
H15	H	0.146000	0.211900	0.655400	0.094509
H16	H	0.019600	0.175100	0.611600	0.094509
H17	H	0.201000	0.317800	0.918800	0.079320
H18	H	0.221900	0.295100	0.801600	0.129780
H19	H	0.905900	0.218500	0.690000	0.129780
H20	H	0.890300	0.257400	0.813000	0.079320
H21	H	0.691100	0.098000	0.398800	0.126084
H22	H	0.724500	0.042700	0.323800	0.126084
H23	H	0.697100	0.822700	0.274200	0.124813
H24	H	0.812200	0.892900	0.328400	0.124813
H25	H	0.556500	0.854000	0.344600	0.094509
H26	H	0.563500	0.980400	0.388400	0.094509
H27	H	0.399000	0.799000	0.081200	0.079320
H28	H	0.493500	0.778100	0.198400	0.129780
H29	H	0.528500	0.094100	0.310000	0.129780
H30	H	0.444400	0.109700	0.187000	0.079320
H31	H	0.707700	0.300800	0.398800	0.126084
H32	H	0.599300	0.281100	0.323800	0.126084
H33	H	0.577100	0.451500	0.274200	0.124813
H34	H	0.516200	0.435500	0.328400	0.124813
H35	H	0.788100	0.490600	0.344600	0.094509
H36	H	0.824900	0.408000	0.388400	0.094509
H37	H	0.682200	0.282200	0.081200	0.079320
H38	H	0.704900	0.420300	0.198400	0.129780
H39	H	0.781500	0.215900	0.310000	0.129780
H40	H	0.742600	0.077300	0.187000	0.079320
H41	H	0.848000	0.941100	0.898800	0.126084
H42	H	0.792700	0.974500	0.823800	0.126084
H43	H	0.572700	0.947100	0.774200	0.124813
H44	H	0.642900	0.062200	0.828400	0.124813
H45	H	0.604000	0.806500	0.844600	0.094509
H46	H	0.730400	0.813500	0.888400	0.094509
H47	H	0.549000	0.649000	0.581200	0.079320
H48	H	0.528100	0.743500	0.698400	0.129780
H49	H	0.844100	0.778500	0.810000	0.129780
H50	H	0.859700	0.694400	0.687000	0.079320
H51	H	0.050800	0.957700	0.898800	0.126084
H52	H	0.031100	0.849300	0.823800	0.126084
H53	H	0.201500	0.827100	0.774200	0.124813
H54	H	0.185500	0.766200	0.828400	0.124813
H55	H	0.240600	0.038100	0.844600	0.094509
H56	H	0.158000	0.074900	0.888400	0.094509
H57	H	0.032200	0.932200	0.581200	0.079320
H58	H	0.170300	0.954900	0.698400	0.129780
H59	H	0.965900	0.031500	0.810000	0.129780
H60	H	0.827300	0.992600	0.687000	0.079320
H61	H	0.042300	0.152000	0.101200	0.126084
H62	H	0.150700	0.207300	0.176200	0.126084
H63	H	0.172900	0.427300	0.225800	0.124813
H64	H	0.233800	0.357100	0.171600	0.124813
H65	H	0.961900	0.396000	0.155400	0.094509
H66	H	0.925100	0.269600	0.111600	0.094509
H67	H	0.067800	0.451000	0.418800	0.079320
H68	H	0.045100	0.471900	0.301600	0.129780
H69	H	0.968500	0.155900	0.190000	0.129780
H70	H	0.007400	0.140300	0.313000	0.079320
H71	H	0.058900	0.949200	0.101200	0.126084
H72	H	0.025500	0.968900	0.176200	0.126084
H73	H	0.052900	0.798500	0.225800	0.124813
H74	H	0.937800	0.814500	0.171600	0.124813
H75	H	0.193500	0.759400	0.155400	0.094509
H76	H	0.186500	0.842000	0.111600	0.094509
H77	H	0.351000	0.967800	0.418800	0.079320
H78	H	0.256500	0.829700	0.301600	0.129780
H79	H	0.221500	0.034100	0.190000	0.129780
H80	H	0.305600	0.172700	0.313000	0.079320
C1	C	0.668200	0.264100	0.622000	-0.228570
C2	C	0.655570	0.148170	0.570140	0.682564
C3	C	0.527700	0.251500	0.670600	-0.235112
C4	C	0.400870	0.215870	0.633540	0.668518
C5	C	0.577150	0.416850	0.652300	-0.053960
C6	C	0.733410	0.571010	0.872020	0.182458
C7	C	0.650050	0.515750	0.801700	-0.211791
C8	C	0.667200	0.474100	0.732000	0.105881
C9	C	0.768450	0.493650	0.736900	-0.211791
C10	C	0.851460	0.546760	0.811120	0.182458
C11	C	0.953800	0.357900	0.622000	-0.228570
C12	C	0.914570	0.421970	0.570140	0.682564
C13	C	0.142900	0.419100	0.670600	-0.235112
C14	C	0.232670	0.417670	0.633540	0.668518
C15	C	0.075150	0.235450	0.652300	-0.053960
C16	C	0.138610	0.301010	0.872020	0.182458
C17	C	0.151650	0.285950	0.801700	-0.211791
C18	C	0.064800	0.257900	0.732000	0.105881
C19	C	0.968450	0.243250	0.736900	-0.211791
C20	C	0.959660	0.264360	0.811120	0.182458
C21	C	0.735900	0.046200	0.378000	-0.228570
C22	C	0.851830	0.085430	0.429860	0.682564
C23	C	0.748500	0.857100	0.329400	-0.235112
C24	C	0.784130	0.767330	0.366460	0.668518
C25	C	0.583150	0.924850	0.347700	-0.053960
C26	C	0.428990	0.861390	0.127980	0.182458
C27	C	0.484250	0.848350	0.198300	-0.211791
C28	C	0.525900	0.935200	0.268000	0.105881
C29	C	0.506350	0.031550	0.263100	-0.211791
C30	C	0.453240	0.040340	0.188880	0.182458
C31	C	0.642100	0.331800	0.378000	-0.228570
C32	C	0.578030	0.344430	0.429860	0.682564
C33	C	0.580900	0.472300	0.329400	-0.235112
C34	C	0.582330	0.599130	0.366460	0.668518
C35	C	0.764550	0.422850	0.347700	-0.053960
C36	C	0.698990	0.266590	0.127980	0.182458
C37	C	0.714050	0.349950	0.198300	-0.211791
C38	C	0.742100	0.332800	0.268000	0.105881
C39	C	0.756750	0.231550	0.263100	-0.211791
C40	C	0.735640	0.148540	0.188880	0.182458
C41	C	0.796200	0.985900	0.878000	-0.228570
C42	C	0.835430	0.101830	0.929860	0.682564
C43	C	0.607100	0.998500	0.829400	-0.235112
C44	C	0.517330	0.034130	0.866460	0.668518
C45	C	0.674850	0.833150	0.847700	-0.053960
C46	C	0.611390	0.678990	0.627980	0.182458
C47	C	0.598350	0.734250	0.698300	-0.211791
C48	C	0.685200	0.775900	0.768000	0.105881
C49	C	0.781550	0.756350	0.763100	-0.211791
C50	C	0.790340	0.703240	0.688880	0.182458
C51	C	0.081800	0.892100	0.878000	-0.228570
C52	C	0.094430	0.828030	0.929860	0.682564
C53	C	0.222300	0.830900	0.829400	-0.235112
C54	C	0.349130	0.832330	0.866460	0.668518
C55	C	0.172850	0.014550	0.847700	-0.053960
C56	C	0.016590	0.948990	0.627980	0.182458
C57	C	0.099950	0.964050	0.698300	-0.211791
C58	C	0.082800	0.992100	0.768000	0.105881
C59	C	0.981550	0.006750	0.763100	-0.211791
C60	C	0.898540	0.985640	0.688880	0.182458
C61	C	0.107900	0.203800	0.122000	-0.228570
C62	C	0.171970	0.164570	0.070140	0.682564
C63	C	0.169100	0.392900	0.170600	-0.235112
C64	C	0.167670	0.482670	0.133540	0.668518
C65	C	0.985450	0.325150	0.152300	-0.053960
C66	C	0.051010	0.388610	0.372020	0.182458
C67	C	0.035950	0.401650	0.301700	-0.211791
C68	C	0.007900	0.314800	0.232000	0.105881
C69	C	0.993250	0.218450	0.236900	-0.211791
C70	C	0.014360	0.209660	0.311120	0.182458
C71	C	0.014100	0.918200	0.122000	-0.228570
C72	C	0.898170	0.905570	0.070140	0.682564
C73	C	0.001500	0.777700	0.170600	-0.235112
C74	C	0.965870	0.650870	0.133540	0.668518
C75	C	0.166850	0.827150	0.152300	-0.053960
C76	C	0.321010	0.983410	0.372020	0.182458
C77	C	0.265750	0.900050	0.301700	-0.211791
C78	C	0.224100	0.917200	0.232000	0.105881
C79	C	0.243650	0.018450	0.236900	-0.211791
C80	C	0.296760	0.101460	0.311120	0.182458
N1	N	0.561370	0.299870	0.625940	-0.109715
N2	N	0.834340	0.584640	0.877880	-0.356843
N3	N	0.064570	0.326070	0.625940	-0.109715
N4	N	0.043540	0.293240	0.877880	-0.356843
N5	N	0.700130	0.935430	0.374060	-0.109715
N6	N	0.415360	0.956460	0.122120	-0.356843
N7	N	0.673930	0.438630	0.374060	-0.109715
N8	N	0.706760	0.165660	0.122120	-0.356843
N9	N	0.685430	0.950130	0.874060	-0.109715
N10	N	0.706460	0.665360	0.622120	-0.356843
N11	N	0.188630	0.923930	0.874060	-0.109715
N12	N	0.915660	0.956760	0.622120	-0.356843
N13	N	0.076070	0.314570	0.125940	-0.109715
N14	N	0.043240	0.293540	0.377880	-0.356843
N15	N	0.049870	0.811370	0.125940	-0.109715
N16	N	0.334640	0.084340	0.377880	-0.356843
O1	O	0.740490	0.108190	0.584780	-0.601565
O2	O	0.574590	0.108690	0.512980	-0.601565
O3	O	0.356170	0.184970	0.561140	-0.616803
O4	O	0.355840	0.204140	0.678680	-0.621396
O5	O	0.844290	0.476590	0.584780	-0.601565
O6	O	0.938390	0.404290	0.512980	-0.601565
O7	O	0.204970	0.376170	0.561140	-0.616803
O8	O	0.322840	0.474540	0.678680	-0.621396
O9	O	0.891810	0.155710	0.415220	-0.601565
O10	O	0.891310	0.061610	0.487020	-0.601565
O11	O	0.815030	0.795030	0.438860	-0.616803
O12	O	0.795860	0.677160	0.321320	-0.621396
O13	O	0.523410	0.259510	0.415220	-0.601565
O14	O	0.595710	0.425410	0.487020	-0.601565
O15	O	0.623830	0.643830	0.438860	-0.616803
O16	O	0.525460	0.644160	0.321320	-0.621396
O17	O	0.905710	0.141810	0.915220	-0.601565
O18	O	0.811610	0.141310	0.987020	-0.601565
O19	O	0.545030	0.065030	0.938860	-0.616803
O20	O	0.427160	0.045860	0.821320	-0.621396
O21	O	0.009510	0.773410	0.915220	-0.601565
O22	O	0.175410	0.845710	0.987020	-0.601565
O23	O	0.393830	0.873830	0.938860	-0.616803
O24	O	0.394160	0.775460	0.821320	-0.621396
O25	O	0.226590	0.094290	0.084780	-0.601565
O26	O	0.154290	0.188390	0.012980	-0.601565
O27	O	0.126170	0.454970	0.061140	-0.616803
O28	O	0.224540	0.572840	0.178680	-0.621396
O29	O	0.858190	0.990490	0.084780	-0.601565
O30	O	0.858690	0.824590	0.012980	-0.601565
O31	O	0.934970	0.606170	0.061140	-0.616803
O32	O	0.954140	0.605840	0.178680	-0.621396
