data_VIGNOQ_clean_PM
_symmetry_space_group_name_H-M	'P1'
_cell_length_a	12.004000
_cell_length_b	13.943000
_cell_length_c	22.746000
_cell_angle_alpha	95.775999
_cell_angle_beta	105.206001
_cell_angle_gamma	104.264999
_symmetry_Int_Tables_number 1

loop_
_symmetry_equiv_pos_as_xyz
'x,y,z'

loop_
_atom_site_label
_atom_site_type_symbol
_atom_site_fract_x
_atom_site_fract_y
_atom_site_fract_z
_atom_site_charge
Na1	Na	0.709500	0.301900	0.156800	0.204589
Na2	Na	0.290500	0.698100	0.843200	0.204589
Ag1	Ag	0.515770	0.439710	0.082610	0.301788
Ag2	Ag	0.854820	0.485310	0.145880	0.154173
Ag3	Ag	0.973860	0.650290	0.303520	0.371718
Ag4	Ag	0.397940	0.618720	0.174200	0.368153
Ag5	Ag	0.186360	0.925690	0.558950	0.176279
Ag6	Ag	0.316600	0.329410	0.934020	-0.008153
Ag7	Ag	0.151340	0.163540	0.998430	0.259686
Ag8	Ag	0.484230	0.560290	0.917390	0.301788
Ag9	Ag	0.145180	0.514690	0.854120	0.154173
Ag10	Ag	0.026140	0.349710	0.696480	0.371718
Ag11	Ag	0.602060	0.381280	0.825800	0.368153
Ag12	Ag	0.813640	0.074310	0.441050	0.176279
Ag13	Ag	0.683400	0.670590	0.065980	-0.008153
Ag14	Ag	0.848660	0.836460	0.001570	0.259686
H1	H	0.215000	0.792900	0.342800	0.119612
H2	H	0.352800	0.871100	0.432600	0.058487
H3	H	0.572700	0.728200	0.396900	0.058487
H4	H	0.433300	0.646800	0.304700	0.119612
H5	H	0.837100	0.590900	0.517500	0.119612
H6	H	0.698600	0.445100	0.509500	0.058487
H7	H	0.934100	0.468700	0.381300	0.119612
H8	H	0.784800	0.327900	0.370400	0.058487
H9	H	0.816900	0.724700	0.363100	0.121745
H10	H	0.846800	0.868700	0.431000	0.072510
H11	H	0.576200	0.824000	0.241400	0.121745
H12	H	0.658200	0.974500	0.306500	0.072510
H13	H	0.758800	0.252000	0.917800	0.121745
H14	H	0.902300	0.165200	0.919700	0.072891
H15	H	0.129700	0.360200	0.058300	0.072891
H16	H	0.998000	0.452900	0.058900	0.121745
H17	H	0.543900	0.024500	0.911800	0.121745
H18	H	0.635500	0.892300	0.914000	0.072891
H19	H	0.746000	0.133100	0.084600	0.121745
H20	H	0.818500	0.003300	0.089200	0.072891
H21	H	0.785000	0.207100	0.657200	0.119612
H22	H	0.647200	0.128900	0.567400	0.058487
H23	H	0.427300	0.271800	0.603100	0.058487
H24	H	0.566700	0.353200	0.695300	0.119612
H25	H	0.162900	0.409100	0.482500	0.119612
H26	H	0.301400	0.554900	0.490500	0.058487
H27	H	0.065900	0.531300	0.618700	0.119612
H28	H	0.215200	0.672100	0.629600	0.058487
H29	H	0.183100	0.275300	0.636900	0.121745
H30	H	0.153200	0.131300	0.569000	0.072510
H31	H	0.423800	0.176000	0.758600	0.121745
H32	H	0.341800	0.025500	0.693500	0.072510
H33	H	0.241200	0.748000	0.082200	0.121745
H34	H	0.097700	0.834800	0.080300	0.072891
H35	H	0.870300	0.639800	0.941700	0.072891
H36	H	0.002000	0.547100	0.941100	0.121745
H37	H	0.456100	0.975500	0.088200	0.121745
H38	H	0.364500	0.107700	0.086000	0.072891
H39	H	0.254000	0.866900	0.915400	0.121745
H40	H	0.181500	0.996700	0.910800	0.072891
C1	C	0.214900	0.659100	0.257500	0.297363
C2	C	0.304800	0.713000	0.315200	0.007256
C3	C	0.288000	0.777600	0.352900	-0.193522
C4	C	0.372000	0.825000	0.407200	0.187942
C5	C	0.499000	0.741800	0.386200	0.187942
C6	C	0.415900	0.692700	0.331000	-0.193522
C7	C	0.985700	0.647400	0.451100	0.307775
C8	C	0.900000	0.547500	0.445300	0.025328
C9	C	0.827000	0.536500	0.487400	-0.195095
C10	C	0.748000	0.452000	0.483700	0.187942
C11	C	0.884600	0.467000	0.406700	-0.195095
C12	C	0.799000	0.380800	0.402300	0.187942
C13	C	0.687500	0.674700	0.245500	0.296763
C14	C	0.706300	0.760200	0.291500	0.026065
C15	C	0.780000	0.773500	0.350200	-0.166429
C16	C	0.798900	0.861300	0.390400	0.128970
C17	C	0.641000	0.834700	0.276800	-0.166429
C18	C	0.683000	0.919300	0.318400	0.128970
C19	C	0.778900	0.423800	0.990100	0.287131
C20	C	0.864800	0.359500	0.985300	0.028133
C21	C	0.835000	0.276300	0.946300	-0.166936
C22	C	0.922000	0.223800	0.948400	0.140083
C23	C	0.054500	0.337500	0.028700	0.140083
C24	C	0.977100	0.394400	0.030000	-0.166936
C25	C	0.576000	0.175800	0.003000	0.297278
C26	C	0.637000	0.091200	0.998200	0.027662
C27	C	0.602000	0.021500	0.947000	-0.167628
C28	C	0.658000	0.942800	0.948400	0.140083
C29	C	0.721000	0.083200	0.049700	-0.167628
C30	C	0.768000	0.010000	0.051800	0.140083
C31	C	0.785100	0.340900	0.742500	0.297363
C32	C	0.695200	0.287000	0.684800	0.007256
C33	C	0.712000	0.222400	0.647100	-0.193522
C34	C	0.628000	0.175000	0.592800	0.187942
C35	C	0.501000	0.258200	0.613800	0.187942
C36	C	0.584100	0.307300	0.669000	-0.193522
C37	C	0.014300	0.352600	0.548900	0.307775
C38	C	0.100000	0.452500	0.554700	0.025328
C39	C	0.173000	0.463500	0.512600	-0.195095
C40	C	0.252000	0.548000	0.516300	0.187942
C41	C	0.115400	0.533000	0.593300	-0.195095
C42	C	0.201000	0.619200	0.597700	0.187942
C43	C	0.312500	0.325300	0.754500	0.296763
C44	C	0.293700	0.239800	0.708500	0.026065
C45	C	0.220000	0.226500	0.649800	-0.166429
C46	C	0.201100	0.138700	0.609600	0.128970
C47	C	0.359000	0.165300	0.723200	-0.166429
C48	C	0.317000	0.080700	0.681600	0.128970
C49	C	0.221100	0.576200	0.009900	0.287131
C50	C	0.135200	0.640500	0.014700	0.028133
C51	C	0.165000	0.723700	0.053700	-0.166936
C52	C	0.078000	0.776200	0.051600	0.140083
C53	C	0.945500	0.662500	0.971300	0.140083
C54	C	0.022900	0.605600	0.970000	-0.166936
C55	C	0.424000	0.824200	0.997000	0.297278
C56	C	0.363000	0.908800	0.001800	0.027662
C57	C	0.398000	0.978500	0.053000	-0.167628
C58	C	0.342000	0.057200	0.051600	0.140083
C59	C	0.279000	0.916800	0.950300	-0.167628
C60	C	0.232000	0.990000	0.948200	0.140083
N1	N	0.242400	0.619600	0.206700	-0.231984
N2	N	0.133700	0.572000	0.164000	-0.118910
N3	N	0.048100	0.583000	0.189600	0.040419
N4	N	0.477200	0.810400	0.426300	-0.436860
N5	N	0.025900	0.685600	0.406200	-0.219581
N6	N	0.100500	0.776500	0.433900	-0.167967
N7	N	0.097100	0.792900	0.491100	0.030506
N8	N	0.022200	0.713500	0.504300	-0.367431
N9	N	0.738900	0.369200	0.438500	-0.436860
N10	N	0.777400	0.631500	0.242800	-0.279414
N11	N	0.734000	0.561400	0.192700	-0.002738
N12	N	0.621000	0.559500	0.166100	-0.013401
N13	N	0.589900	0.630900	0.197600	-0.285286
N14	N	0.755300	0.931900	0.375400	-0.326294
N15	N	0.782600	0.481400	0.039100	-0.268264
N16	N	0.698000	0.521500	0.021500	0.073253
N17	N	0.638600	0.490100	0.965700	-0.095980
N18	N	0.688200	0.422700	0.940600	-0.278171
N19	N	0.033900	0.254300	0.990000	-0.333038
N20	N	0.600800	0.248200	0.051600	-0.299233
N21	N	0.529400	0.302700	0.030600	-0.145844
N22	N	0.460300	0.266100	0.974200	0.021908
N23	N	0.492000	0.185900	0.952800	-0.348844
N24	N	0.746000	0.941800	0.001000	-0.333038
N25	N	0.098500	0.633900	0.245900	-0.276209
N26	N	0.757600	0.380400	0.793300	-0.231984
N27	N	0.866300	0.428000	0.836000	-0.118910
N28	N	0.951900	0.417000	0.810400	0.040419
N29	N	0.522800	0.189600	0.573700	-0.436860
N30	N	0.974100	0.314400	0.593800	-0.219581
N31	N	0.899500	0.223500	0.566100	-0.167967
N32	N	0.902900	0.207100	0.508900	0.030506
N33	N	0.977800	0.286500	0.495700	-0.367431
N34	N	0.261100	0.630800	0.561500	-0.436860
N35	N	0.222600	0.368500	0.757200	-0.279414
N36	N	0.266000	0.438600	0.807300	-0.002738
N37	N	0.379000	0.440500	0.833900	-0.013401
N38	N	0.410100	0.369100	0.802400	-0.285286
N39	N	0.244700	0.068100	0.624600	-0.326294
N40	N	0.217400	0.518600	0.960900	-0.268264
N41	N	0.302000	0.478500	0.978500	0.073253
N42	N	0.361400	0.509900	0.034300	-0.095980
N43	N	0.311800	0.577300	0.059400	-0.278171
N44	N	0.966100	0.745700	0.010000	-0.333038
N45	N	0.399200	0.751800	0.948400	-0.299233
N46	N	0.470600	0.697300	0.969400	-0.145844
N47	N	0.539700	0.733900	0.025800	0.021908
N48	N	0.508000	0.814100	0.047200	-0.348844
N49	N	0.254000	0.058200	0.999000	-0.333038
N50	N	0.901500	0.366100	0.754100	-0.276209
