data_VIPZAX_clean_PM
_symmetry_space_group_name_H-M	'P1'
_cell_length_a	8.193900
_cell_length_b	12.857000
_cell_length_c	17.789000
_cell_angle_alpha	99.860001
_cell_angle_beta	90.000000
_cell_angle_gamma	90.000000
_symmetry_Int_Tables_number 1

loop_
_symmetry_equiv_pos_as_xyz
'x,y,z'

loop_
_atom_site_label
_atom_site_type_symbol
_atom_site_fract_x
_atom_site_fract_y
_atom_site_fract_z
_atom_site_charge
Mn1	Mn	0.084930	0.384110	0.064670	1.058089
Mn2	Mn	0.143470	0.583740	0.288700	1.123426
Mn3	Mn	0.584930	0.115890	0.435330	1.058089
Mn4	Mn	0.643470	0.916260	0.211300	1.123426
Mn5	Mn	0.915070	0.615890	0.935330	1.058089
Mn6	Mn	0.856530	0.416260	0.711300	1.123426
Mn7	Mn	0.415070	0.884110	0.564670	1.058089
Mn8	Mn	0.356530	0.083740	0.788700	1.123426
H1	H	0.184500	0.006900	0.363900	0.139403
H2	H	0.068100	0.992700	0.245000	0.128790
H3	H	0.065200	0.139200	0.182700	0.102230
H4	H	0.284300	0.307700	0.365400	0.134864
H5	H	0.684500	0.493100	0.136100	0.139403
H6	H	0.568100	0.507300	0.255000	0.128790
H7	H	0.565200	0.360800	0.317300	0.102230
H8	H	0.784300	0.192300	0.134600	0.134864
H9	H	0.815500	0.993100	0.636100	0.139403
H10	H	0.931900	0.007300	0.755000	0.128790
H11	H	0.934800	0.860800	0.817300	0.102230
H12	H	0.715700	0.692300	0.634600	0.134864
H13	H	0.315500	0.506900	0.863900	0.139403
H14	H	0.431900	0.492700	0.745000	0.128790
H15	H	0.434800	0.639200	0.682700	0.102230
H16	H	0.215700	0.807700	0.865400	0.134864
C1	C	0.930900	0.771400	0.257900	0.671675
C2	C	0.940700	0.698900	0.181600	-0.014052
C3	C	0.898200	0.706900	0.107100	-0.014251
C4	C	0.826000	0.791000	0.067200	0.672137
C5	C	0.182000	0.065200	0.339300	-0.064937
C6	C	0.112600	0.056700	0.268500	-0.081395
C7	C	0.108800	0.144600	0.231500	0.026797
C8	C	0.171300	0.239800	0.269100	-0.158741
C9	C	0.240900	0.244400	0.340200	-0.058907
C10	C	0.161500	0.340000	0.234000	0.710137
C11	C	0.430900	0.728600	0.242100	0.671675
C12	C	0.440700	0.801100	0.318400	-0.014052
C13	C	0.398200	0.793100	0.392900	-0.014251
C14	C	0.326000	0.709000	0.432800	0.672137
C15	C	0.682000	0.434800	0.160700	-0.064937
C16	C	0.612600	0.443300	0.231500	-0.081395
C17	C	0.608800	0.355400	0.268500	0.026797
C18	C	0.671300	0.260200	0.230900	-0.158741
C19	C	0.740900	0.255600	0.159800	-0.058907
C20	C	0.661500	0.160000	0.266000	0.710137
C21	C	0.069100	0.228600	0.742100	0.671675
C22	C	0.059300	0.301100	0.818400	-0.014052
C23	C	0.101800	0.293100	0.892900	-0.014251
C24	C	0.174000	0.209000	0.932800	0.672137
C25	C	0.818000	0.934800	0.660700	-0.064937
C26	C	0.887400	0.943300	0.731500	-0.081395
C27	C	0.891200	0.855400	0.768500	0.026797
C28	C	0.828700	0.760200	0.730900	-0.158741
C29	C	0.759100	0.755600	0.659800	-0.058907
C30	C	0.838500	0.660000	0.766000	0.710137
C31	C	0.569100	0.271400	0.757900	0.671675
C32	C	0.559300	0.198900	0.681600	-0.014052
C33	C	0.601800	0.206900	0.607100	-0.014251
C34	C	0.674000	0.291000	0.567200	0.672137
C35	C	0.318000	0.565200	0.839300	-0.064937
C36	C	0.387400	0.556700	0.768500	-0.081395
C37	C	0.391200	0.644600	0.731500	0.026797
C38	C	0.328700	0.739800	0.769100	-0.158741
C39	C	0.259100	0.744400	0.840200	-0.058907
C40	C	0.338500	0.840000	0.734000	0.710137
N1	N	0.010100	0.601900	0.179890	-0.256969
N2	N	0.011200	0.553100	0.107140	-0.073348
N3	N	0.944800	0.615300	0.062220	-0.287401
N4	N	0.246600	0.157800	0.373600	0.363343
N5	N	0.510100	0.898100	0.320110	-0.256969
N6	N	0.511200	0.946900	0.392860	-0.073348
N7	N	0.444800	0.884700	0.437780	-0.287401
N8	N	0.746600	0.342200	0.126400	0.363343
N9	N	0.989900	0.398100	0.820110	-0.256969
N10	N	0.988800	0.446900	0.892860	-0.073348
N11	N	0.055200	0.384700	0.937780	-0.287401
N12	N	0.753400	0.842200	0.626400	0.363343
N13	N	0.489900	0.101900	0.679890	-0.256969
N14	N	0.488800	0.053100	0.607140	-0.073348
N15	N	0.555200	0.115300	0.562220	-0.287401
N16	N	0.253400	0.657800	0.873600	0.363343
O1	O	0.011700	0.740100	0.311630	-0.596532
O2	O	0.853000	0.855000	0.265480	-0.596532
O3	O	0.770000	0.874400	0.104880	-0.595915
O4	O	0.829100	0.771200	0.995080	-0.595172
O5	O	0.321500	0.163300	0.442790	-0.514768
O6	O	0.218300	0.422700	0.272770	-0.611698
O7	O	0.092000	0.331600	0.170280	-0.610275
O8	O	0.511700	0.759900	0.188370	-0.596532
O9	O	0.353000	0.645000	0.234520	-0.596532
O10	O	0.270000	0.625600	0.395120	-0.595915
O11	O	0.329100	0.728800	0.504920	-0.595172
O12	O	0.821500	0.336700	0.057210	-0.514768
O13	O	0.718300	0.077300	0.227230	-0.611698
O14	O	0.592000	0.168400	0.329720	-0.610275
O15	O	0.988300	0.259900	0.688370	-0.596532
O16	O	0.147000	0.145000	0.734520	-0.596532
O17	O	0.230000	0.125600	0.895120	-0.595915
O18	O	0.170900	0.228800	0.004920	-0.595172
O19	O	0.678500	0.836700	0.557210	-0.514768
O20	O	0.781700	0.577300	0.727230	-0.611698
O21	O	0.908000	0.668400	0.829720	-0.610275
O22	O	0.488300	0.240100	0.811630	-0.596532
O23	O	0.647000	0.355000	0.765480	-0.596532
O24	O	0.730000	0.374400	0.604880	-0.595915
O25	O	0.670900	0.271200	0.495080	-0.595172
O26	O	0.178500	0.663300	0.942790	-0.514768
O27	O	0.281700	0.922700	0.772770	-0.611698
O28	O	0.408000	0.831600	0.670280	-0.610275
