data_VISTUM_clean_PM
_symmetry_space_group_name_H-M	'P1'
_cell_length_a	7.782000
_cell_length_b	11.326301
_cell_length_c	13.272000
_cell_angle_alpha	90.000000
_cell_angle_beta	90.000000
_cell_angle_gamma	110.092001
_symmetry_Int_Tables_number 1

loop_
_symmetry_equiv_pos_as_xyz
'x,y,z'

loop_
_atom_site_label
_atom_site_type_symbol
_atom_site_fract_x
_atom_site_fract_y
_atom_site_fract_z
_atom_site_charge
Cd1	Cd	0.279670	0.315280	0.250000	0.640257
Cd2	Cd	0.720330	0.684720	0.750000	0.640257
Cd3	Cd	0.964390	0.684720	0.250000	0.640257
Cd4	Cd	0.035610	0.315280	0.750000	0.640257
Cd5	Cd	0.500000	0.000000	0.000000	0.842421
Cd6	Cd	0.500000	0.000000	0.500000	0.842421
H1	H	0.199600	0.106400	0.911400	0.080821
H2	H	0.384000	0.199800	0.836900	0.080821
H3	H	0.093200	0.893600	0.588600	0.080821
H4	H	0.184200	0.800200	0.663100	0.080821
H5	H	0.199600	0.106400	0.588600	0.080821
H6	H	0.384000	0.199800	0.663100	0.080821
H7	H	0.093200	0.893600	0.911400	0.080821
H8	H	0.184200	0.800200	0.836900	0.080821
H9	H	0.917200	0.000000	0.816400	0.085019
H10	H	0.917200	0.000000	0.683600	0.085019
H11	H	0.467100	0.917000	0.750000	0.083287
H12	H	0.550100	0.083000	0.750000	0.083287
H13	H	0.800400	0.893600	0.411400	0.080821
H14	H	0.616000	0.800200	0.336900	0.080821
H15	H	0.906800	0.106400	0.088600	0.080821
H16	H	0.815800	0.199800	0.163100	0.080821
H17	H	0.800400	0.893600	0.088600	0.080821
H18	H	0.616000	0.800200	0.163100	0.080821
H19	H	0.906800	0.106400	0.411400	0.080821
H20	H	0.815800	0.199800	0.336900	0.080821
H21	H	0.082800	0.000000	0.316400	0.085019
H22	H	0.082800	0.000000	0.183600	0.085019
H23	H	0.532900	0.083000	0.250000	0.083287
H24	H	0.449900	0.917000	0.250000	0.083287
C1	C	0.351800	0.214400	0.121100	-0.108120
C2	C	0.648200	0.785600	0.621100	-0.108120
C3	C	0.137400	0.785600	0.378900	-0.108120
C4	C	0.862600	0.214400	0.878900	-0.108120
C5	C	0.648200	0.785600	0.878900	-0.108120
C6	C	0.351800	0.214400	0.378900	-0.108120
C7	C	0.862600	0.214400	0.621100	-0.108120
C8	C	0.137400	0.785600	0.121100	-0.108120
C9	C	0.106800	0.429800	0.250000	-0.106671
C10	C	0.893200	0.570200	0.750000	-0.106671
C11	C	0.677000	0.570200	0.250000	-0.106671
C12	C	0.323000	0.429800	0.750000	-0.106671
C13	C	0.268700	0.112800	0.840000	0.157027
C14	C	0.155900	0.887200	0.660000	0.157027
C15	C	0.268700	0.112800	0.660000	0.157027
C16	C	0.155900	0.887200	0.840000	0.157027
C17	C	0.997300	0.000000	0.750000	0.145234
C18	C	0.428500	0.000000	0.750000	0.131763
C19	C	0.731300	0.887200	0.340000	0.157027
C20	C	0.844100	0.112800	0.160000	0.157027
C21	C	0.731300	0.887200	0.160000	0.157027
C22	C	0.844100	0.112800	0.340000	0.157027
C23	C	0.002700	0.000000	0.250000	0.145234
C24	C	0.571500	0.000000	0.250000	0.131763
N1	N	0.398000	0.150800	0.070300	-0.358601
N2	N	0.602000	0.849200	0.570300	-0.358601
N3	N	0.247200	0.849200	0.429700	-0.358601
N4	N	0.752800	0.150800	0.929700	-0.358601
N5	N	0.602000	0.849200	0.929700	-0.358601
N6	N	0.398000	0.150800	0.429700	-0.358601
N7	N	0.752800	0.150800	0.570300	-0.358601
N8	N	0.247200	0.849200	0.070300	-0.358601
N9	N	0.045100	0.507400	0.250000	-0.348475
N10	N	0.954900	0.492600	0.750000	-0.348475
N11	N	0.537700	0.492600	0.250000	-0.348475
N12	N	0.462300	0.507400	0.750000	-0.348475
N13	N	0.323400	0.000000	0.843200	-0.316375
N14	N	0.323400	0.000000	0.656800	-0.316375
N15	N	0.159900	0.115400	0.750000	-0.300648
N16	N	0.044500	0.884600	0.750000	-0.300648
N17	N	0.676600	0.000000	0.343200	-0.316375
N18	N	0.676600	0.000000	0.156800	-0.316375
N19	N	0.840100	0.884600	0.250000	-0.300648
N20	N	0.955500	0.115400	0.250000	-0.300648
