data_WAFKAQ_clean_PM
_symmetry_space_group_name_H-M	'P1'
_cell_length_a	14.354700
_cell_length_b	14.354700
_cell_length_c	14.354700
_cell_angle_alpha	95.803198
_cell_angle_beta	116.708000
_cell_angle_gamma	116.708000
_symmetry_Int_Tables_number 1

loop_
_symmetry_equiv_pos_as_xyz
'x,y,z'

loop_
_atom_site_label
_atom_site_type_symbol
_atom_site_fract_x
_atom_site_fract_y
_atom_site_fract_z
_atom_site_charge
Zn1	Zn	0.000000	0.423310	0.423310	0.890681
Zn2	Zn	0.000000	0.076690	0.076690	0.890681
Zn3	Zn	0.000000	0.576690	0.576690	0.890681
Zn4	Zn	0.000000	0.923310	0.923310	0.890681
H1	H	0.093200	0.246600	0.637400	0.098246
H2	H	0.073000	0.425000	0.258000	0.095725
H3	H	0.917000	0.331000	0.182000	0.095725
H4	H	0.906800	0.544200	0.153400	0.098246
H5	H	0.927000	0.185000	0.352000	0.095725
H6	H	0.083000	0.265000	0.414000	0.095725
H7	H	0.609200	0.153400	0.246600	0.098246
H8	H	0.167000	0.352000	0.425000	0.095725
H9	H	0.149000	0.414000	0.331000	0.095725
H10	H	0.390800	0.637400	0.544200	0.098246
H11	H	0.833000	0.258000	0.185000	0.095725
H12	H	0.851000	0.182000	0.265000	0.095725
H13	H	0.609200	0.955800	0.862600	0.098246
H14	H	0.167000	0.315000	0.242000	0.095725
H15	H	0.149000	0.235000	0.318000	0.095725
H16	H	0.390800	0.253400	0.346600	0.098246
H17	H	0.833000	0.075000	0.148000	0.095725
H18	H	0.851000	0.169000	0.086000	0.095725
H19	H	0.906800	0.862600	0.253400	0.098246
H20	H	0.927000	0.242000	0.075000	0.095725
H21	H	0.083000	0.318000	0.169000	0.095725
H22	H	0.093200	0.346600	0.955800	0.098246
H23	H	0.073000	0.148000	0.315000	0.095725
H24	H	0.917000	0.086000	0.235000	0.095725
H25	H	0.906800	0.753400	0.362600	0.098246
H26	H	0.927000	0.575000	0.742000	0.095725
H27	H	0.083000	0.669000	0.818000	0.095725
H28	H	0.093200	0.455800	0.846600	0.098246
H29	H	0.073000	0.815000	0.648000	0.095725
H30	H	0.917000	0.735000	0.586000	0.095725
H31	H	0.390800	0.846600	0.753400	0.098246
H32	H	0.833000	0.648000	0.575000	0.095725
H33	H	0.851000	0.586000	0.669000	0.095725
H34	H	0.609200	0.362600	0.455800	0.098246
H35	H	0.167000	0.742000	0.815000	0.095725
H36	H	0.149000	0.818000	0.735000	0.095725
H37	H	0.390800	0.044200	0.137400	0.098246
H38	H	0.833000	0.685000	0.758000	0.095725
H39	H	0.851000	0.765000	0.682000	0.095725
H40	H	0.609200	0.746600	0.653400	0.098246
H41	H	0.167000	0.925000	0.852000	0.095725
H42	H	0.149000	0.831000	0.914000	0.095725
H43	H	0.093200	0.137400	0.746600	0.098246
H44	H	0.073000	0.758000	0.925000	0.095725
H45	H	0.917000	0.682000	0.831000	0.095725
H46	H	0.906800	0.653400	0.044200	0.098246
H47	H	0.927000	0.852000	0.685000	0.095725
H48	H	0.083000	0.914000	0.765000	0.095725
C1	C	0.091020	0.265800	0.700600	-0.073343
C2	C	0.028500	0.366900	0.244400	-0.103781
C3	C	0.908980	0.609580	0.174780	-0.073343
C4	C	0.971500	0.215900	0.338400	-0.103781
C5	C	0.565200	0.174780	0.265800	-0.073343
C6	C	0.122500	0.338400	0.366900	-0.103781
C7	C	0.434800	0.700600	0.609580	-0.073343
C8	C	0.877500	0.244400	0.215900	-0.103781
C9	C	0.565200	0.890420	0.799400	-0.073343
C10	C	0.122500	0.284100	0.255600	-0.103781
C11	C	0.434800	0.234200	0.325220	-0.073343
C12	C	0.877500	0.133100	0.161600	-0.103781
C13	C	0.908980	0.799400	0.234200	-0.073343
C14	C	0.971500	0.255600	0.133100	-0.103781
C15	C	0.091020	0.325220	0.890420	-0.073343
C16	C	0.028500	0.161600	0.284100	-0.103781
C17	C	0.908980	0.734200	0.299400	-0.073343
C18	C	0.971500	0.633100	0.755600	-0.103781
C19	C	0.091020	0.390420	0.825220	-0.073343
C20	C	0.028500	0.784100	0.661600	-0.103781
C21	C	0.434800	0.825220	0.734200	-0.073343
C22	C	0.877500	0.661600	0.633100	-0.103781
C23	C	0.565200	0.299400	0.390420	-0.073343
C24	C	0.122500	0.755600	0.784100	-0.103781
C25	C	0.434800	0.109580	0.200600	-0.073343
C26	C	0.877500	0.715900	0.744400	-0.103781
C27	C	0.565200	0.765800	0.674780	-0.073343
C28	C	0.122500	0.866900	0.838400	-0.103781
C29	C	0.091020	0.200600	0.765800	-0.073343
C30	C	0.028500	0.744400	0.866900	-0.103781
C31	C	0.908980	0.674780	0.109580	-0.073343
C32	C	0.971500	0.838400	0.715900	-0.103781
C33	C	0.087810	0.359120	0.728690	-0.137130
C34	C	0.071680	0.421220	0.650460	0.671720
C35	C	0.912190	0.640880	0.271310	-0.137130
C36	C	0.928320	0.578780	0.349540	0.671720
C37	C	0.630430	0.271310	0.359120	-0.137130
C38	C	0.770760	0.349540	0.421220	0.671720
C39	C	0.369570	0.728690	0.640880	-0.137130
C40	C	0.229240	0.650460	0.578780	0.671720
C41	C	0.630430	0.859120	0.771310	-0.137130
C42	C	0.770760	0.921220	0.849540	0.671720
C43	C	0.369570	0.140880	0.228690	-0.137130
C44	C	0.229240	0.078780	0.150460	0.671720
C45	C	0.912190	0.771310	0.140880	-0.137130
C46	C	0.928320	0.849540	0.078780	0.671720
C47	C	0.087810	0.228690	0.859120	-0.137130
C48	C	0.071680	0.150460	0.921220	0.671720
N1	N	0.000000	0.317110	0.317110	0.000592
N2	N	0.000000	0.182890	0.182890	0.000592
N3	N	0.000000	0.682890	0.682890	0.000592
N4	N	0.000000	0.817110	0.817110	0.000592
O1	O	0.064770	0.386740	0.562790	-0.602684
O2	O	0.935230	0.498020	0.321970	-0.602684
O3	O	0.823950	0.321970	0.386740	-0.602684
O4	O	0.176050	0.562790	0.498020	-0.602684
O5	O	0.823950	0.001980	0.937210	-0.602684
O6	O	0.176050	0.113260	0.178030	-0.602684
O7	O	0.935230	0.937210	0.113260	-0.602684
O8	O	0.064770	0.178030	0.001980	-0.602684
O9	O	0.935230	0.613260	0.437210	-0.602684
O10	O	0.064770	0.501980	0.678030	-0.602684
O11	O	0.176050	0.678030	0.613260	-0.602684
O12	O	0.823950	0.437210	0.501980	-0.602684
O13	O	0.176050	0.998020	0.062790	-0.602684
O14	O	0.823950	0.886740	0.821970	-0.602684
O15	O	0.064770	0.062790	0.886740	-0.602684
O16	O	0.935230	0.821970	0.998020	-0.602684
