data_WEMBUN_clean_PM
_symmetry_space_group_name_H-M	'P1'
_cell_length_a	9.610300
_cell_length_b	11.531000
_cell_length_c	12.200000
_cell_angle_alpha	90.000000
_cell_angle_beta	99.030000
_cell_angle_gamma	90.000000
_symmetry_Int_Tables_number 1

loop_
_symmetry_equiv_pos_as_xyz
'x,y,z'

loop_
_atom_site_label
_atom_site_type_symbol
_atom_site_fract_x
_atom_site_fract_y
_atom_site_fract_z
_atom_site_charge
Er1	Er	0.784910	0.988480	0.667020	1.285201
Er2	Er	0.715090	0.488480	0.832980	1.285201
Er3	Er	0.215090	0.011520	0.332980	1.285201
Er4	Er	0.284910	0.511520	0.167020	1.285201
C1	C	0.799800	0.258500	0.716300	0.516924
C2	C	0.695700	0.214100	0.792200	0.516924
C3	C	0.496000	0.933900	0.501200	0.516924
C4	C	0.063000	0.000700	0.547000	0.516924
C5	C	0.700200	0.758500	0.783700	0.516924
C6	C	0.804300	0.714100	0.707800	0.516924
C7	C	0.004000	0.433900	0.998800	0.516924
C8	C	0.437000	0.500700	0.953000	0.516924
C9	C	0.200200	0.741500	0.283700	0.516924
C10	C	0.304300	0.785900	0.207800	0.516924
C11	C	0.504000	0.066100	0.498800	0.516924
C12	C	0.937000	0.999300	0.453000	0.516924
C13	C	0.299800	0.241500	0.216300	0.516924
C14	C	0.195700	0.285900	0.292200	0.516924
C15	C	0.996000	0.566100	0.001200	0.516924
C16	C	0.563000	0.499300	0.047000	0.516924
O1	O	0.863800	0.182900	0.670200	-0.419112
O2	O	0.811400	0.365600	0.707900	-0.419112
O3	O	0.677200	0.107000	0.794800	-0.419112
O4	O	0.637700	0.290800	0.843300	-0.419112
O5	O	0.588200	0.882300	0.568000	-0.419112
O6	O	0.397200	0.887700	0.437500	-0.419112
O7	O	0.033400	0.992200	0.644200	-0.419112
O8	O	0.182200	0.010800	0.521600	-0.419112
O9	O	0.636200	0.682900	0.829800	-0.419112
O10	O	0.688600	0.865600	0.792100	-0.419112
O11	O	0.822800	0.607000	0.705200	-0.419112
O12	O	0.862300	0.790800	0.656700	-0.419112
O13	O	0.911800	0.382300	0.932000	-0.419112
O14	O	0.102800	0.387700	0.062500	-0.419112
O15	O	0.466600	0.492200	0.855800	-0.419112
O16	O	0.317800	0.510800	0.978400	-0.419112
O17	O	0.136200	0.817100	0.329800	-0.419112
O18	O	0.188600	0.634400	0.292100	-0.419112
O19	O	0.322800	0.893000	0.205200	-0.419112
O20	O	0.362300	0.709200	0.156700	-0.419112
O21	O	0.411800	0.117700	0.432000	-0.419112
O22	O	0.602800	0.112300	0.562500	-0.419112
O23	O	0.966600	0.007800	0.355800	-0.419112
O24	O	0.817800	0.989200	0.478400	-0.419112
O25	O	0.363800	0.317100	0.170200	-0.419112
O26	O	0.311400	0.134400	0.207900	-0.419112
O27	O	0.177200	0.393000	0.294800	-0.419112
O28	O	0.137700	0.209200	0.343300	-0.419112
O29	O	0.088200	0.617700	0.068000	-0.419112
O30	O	0.897200	0.612300	0.937500	-0.419112
O31	O	0.533400	0.507800	0.144200	-0.419112
O32	O	0.682200	0.489200	0.021600	-0.419112
