data_WEMDOJ_clean_PM
_symmetry_space_group_name_H-M	'P1'
_cell_length_a	9.688500
_cell_length_b	11.817000
_cell_length_c	12.326000
_cell_angle_alpha	90.000000
_cell_angle_beta	99.259999
_cell_angle_gamma	90.000000
_symmetry_Int_Tables_number 1

loop_
_symmetry_equiv_pos_as_xyz
'x,y,z'

loop_
_atom_site_label
_atom_site_type_symbol
_atom_site_fract_x
_atom_site_fract_y
_atom_site_fract_z
_atom_site_charge
Sm1	Sm	0.786380	0.516450	0.669520	2.230939
Sm2	Sm	0.713620	0.016450	0.830480	2.230939
Sm3	Sm	0.213620	0.483550	0.330480	2.230939
Sm4	Sm	0.286380	0.983550	0.169520	2.230939
C1	C	0.495000	0.565200	0.499200	0.557036
C2	C	0.799900	0.246900	0.717400	0.557036
C3	C	0.699700	0.290500	0.794800	0.557036
C4	C	0.063200	0.500900	0.547600	0.557036
C5	C	0.005000	0.065200	0.000800	0.557036
C6	C	0.700100	0.746900	0.782600	0.557036
C7	C	0.800300	0.790500	0.705200	0.557036
C8	C	0.436800	0.000900	0.952400	0.557036
C9	C	0.505000	0.434800	0.500800	0.557036
C10	C	0.200100	0.753100	0.282600	0.557036
C11	C	0.300300	0.709500	0.205200	0.557036
C12	C	0.936800	0.499100	0.452400	0.557036
C13	C	0.995000	0.934800	0.999200	0.557036
C14	C	0.299900	0.253100	0.217400	0.557036
C15	C	0.199700	0.209500	0.294800	0.557036
C16	C	0.563200	0.999100	0.047600	0.557036
O1	O	0.583000	0.618200	0.565800	-0.557385
O2	O	0.398900	0.607900	0.432200	-0.557385
O3	O	0.866600	0.320310	0.673000	-0.557385
O4	O	0.807000	0.142300	0.705000	-0.557385
O5	O	0.640000	0.216600	0.843800	-0.557385
O6	O	0.686200	0.395500	0.801100	-0.557385
O7	O	0.033600	0.515100	0.642400	-0.557385
O8	O	0.181400	0.487500	0.522500	-0.557385
O9	O	0.917000	0.118200	0.934200	-0.557385
O10	O	0.101100	0.107900	0.067800	-0.557385
O11	O	0.633400	0.820310	0.827000	-0.557385
O12	O	0.693000	0.642300	0.795000	-0.557385
O13	O	0.860000	0.716600	0.656200	-0.557385
O14	O	0.813800	0.895500	0.698900	-0.557385
O15	O	0.466400	0.015100	0.857600	-0.557385
O16	O	0.318600	0.987500	0.977500	-0.557385
O17	O	0.417000	0.381800	0.434200	-0.557385
O18	O	0.601100	0.392100	0.567800	-0.557385
O19	O	0.133400	0.679690	0.327000	-0.557385
O20	O	0.193000	0.857700	0.295000	-0.557385
O21	O	0.360000	0.783400	0.156200	-0.557385
O22	O	0.313800	0.604500	0.198900	-0.557385
O23	O	0.966400	0.484900	0.357600	-0.557385
O24	O	0.818600	0.512500	0.477500	-0.557385
O25	O	0.083000	0.881800	0.065800	-0.557385
O26	O	0.898900	0.892100	0.932200	-0.557385
O27	O	0.366600	0.179690	0.173000	-0.557385
O28	O	0.307000	0.357700	0.205000	-0.557385
O29	O	0.140000	0.283400	0.343800	-0.557385
O30	O	0.186200	0.104500	0.301100	-0.557385
O31	O	0.533600	0.984900	0.142400	-0.557385
O32	O	0.681400	0.012500	0.022500	-0.557385
