data_WIDZUG_clean_PM
_symmetry_space_group_name_H-M	'P1'
_cell_length_a	11.598500
_cell_length_b	13.647813
_cell_length_c	14.248400
_cell_angle_alpha	102.167078
_cell_angle_beta	90.000000
_cell_angle_gamma	115.145225
_symmetry_Int_Tables_number 1

loop_
_symmetry_equiv_pos_as_xyz
'x,y,z'

loop_
_atom_site_label
_atom_site_type_symbol
_atom_site_fract_x
_atom_site_fract_y
_atom_site_fract_z
_atom_site_charge
Cd1	Cd	0.555140	0.554040	0.135750	1.005181
Cd2	Cd	0.998900	0.554040	0.635750	1.005181
Cd3	Cd	0.001100	0.445960	0.364250	1.005181
Cd4	Cd	0.444860	0.445960	0.864250	1.005181
H1	H	0.806200	0.789600	0.414000	0.124004
H2	H	0.911900	0.760400	0.365100	0.124004
H3	H	0.870800	0.712200	0.515600	0.127090
H4	H	0.733400	0.623800	0.470000	0.127090
H5	H	0.730200	0.809400	0.137700	0.077404
H6	H	0.727600	0.976200	0.132800	0.142191
H7	H	0.345400	0.825200	0.117900	0.142191
H8	H	0.357200	0.661600	0.121800	0.077404
H9	H	0.789400	0.294800	0.120200	0.142191
H10	H	0.765300	0.454800	0.125900	0.077404
H11	H	0.401200	0.302200	0.148900	0.077404
H12	H	0.413300	0.136600	0.141100	0.142191
H13	H	0.983400	0.789600	0.914000	0.124004
H14	H	0.848500	0.760400	0.865100	0.124004
H15	H	0.841400	0.712200	0.015600	0.127090
H16	H	0.890400	0.623800	0.970000	0.127090
H17	H	0.079200	0.809400	0.637700	0.077404
H18	H	0.248600	0.976200	0.632800	0.142191
H19	H	0.479800	0.825200	0.617900	0.142191
H20	H	0.304400	0.661600	0.621800	0.077404
H21	H	0.505400	0.294800	0.620200	0.142191
H22	H	0.689500	0.454800	0.625900	0.077404
H23	H	0.901000	0.302200	0.648900	0.077404
H24	H	0.723300	0.136600	0.641100	0.142191
H25	H	0.016600	0.210400	0.086000	0.124004
H26	H	0.151500	0.239600	0.134900	0.124004
H27	H	0.158600	0.287800	0.984400	0.127090
H28	H	0.109600	0.376200	0.030000	0.127090
H29	H	0.920800	0.190600	0.362300	0.077404
H30	H	0.751400	0.023800	0.367200	0.142191
H31	H	0.520200	0.174800	0.382100	0.142191
H32	H	0.695600	0.338400	0.378200	0.077404
H33	H	0.494600	0.705200	0.379800	0.142191
H34	H	0.310500	0.545200	0.374100	0.077404
H35	H	0.099000	0.697800	0.351100	0.077404
H36	H	0.276700	0.863400	0.358900	0.142191
H37	H	0.193800	0.210400	0.586000	0.124004
H38	H	0.088100	0.239600	0.634900	0.124004
H39	H	0.129200	0.287800	0.484400	0.127090
H40	H	0.266600	0.376200	0.530000	0.127090
H41	H	0.269800	0.190600	0.862300	0.077404
H42	H	0.272400	0.023800	0.867200	0.142191
H43	H	0.654600	0.174800	0.882100	0.142191
H44	H	0.642800	0.338400	0.878200	0.077404
H45	H	0.210600	0.705200	0.879800	0.142191
H46	H	0.234700	0.545200	0.874100	0.077404
H47	H	0.598800	0.697800	0.851100	0.077404
H48	H	0.586700	0.863400	0.858900	0.142191
C1	C	0.734530	0.664260	0.292400	0.697756
C2	C	0.825350	0.728500	0.383300	-0.278270
C3	C	0.821180	0.661760	0.456100	-0.291745
C4	C	0.872460	0.577120	0.422700	0.725802
C5	C	0.652040	0.812880	0.133500	0.192204
C6	C	0.651390	0.913180	0.130700	-0.230599
C7	C	0.535780	0.917760	0.124800	0.272051
C8	C	0.424490	0.823380	0.121700	-0.230599
C9	C	0.432470	0.725540	0.124300	0.192204
C10	C	0.602480	0.198560	0.130400	0.272051
C11	C	0.709350	0.294500	0.125300	-0.230599
C12	C	0.693610	0.389820	0.128100	0.192204
C13	C	0.479690	0.299980	0.141300	0.192204
C14	C	0.486220	0.200440	0.138100	-0.230599
C15	C	0.929730	0.664260	0.792400	0.697756
C16	C	0.903150	0.728500	0.883300	-0.278270
C17	C	0.840580	0.661760	0.956100	-0.291745
C18	C	0.704660	0.577120	0.922700	0.725802
C19	C	0.160840	0.812880	0.633500	0.192204
C20	C	0.261790	0.913180	0.630700	-0.230599
C21	C	0.381980	0.917760	0.624800	0.272051
C22	C	0.398890	0.823380	0.621700	-0.230599
C23	C	0.293070	0.725540	0.624300	0.192204
C24	C	0.596080	0.198560	0.630400	0.272051
C25	C	0.585150	0.294500	0.625300	-0.230599
C26	C	0.696210	0.389820	0.628100	0.192204
C27	C	0.820290	0.299980	0.641300	0.192204
C28	C	0.714220	0.200440	0.638100	-0.230599
C29	C	0.070270	0.335740	0.207600	0.697756
C30	C	0.096850	0.271500	0.116700	-0.278270
C31	C	0.159420	0.338240	0.043900	-0.291745
C32	C	0.295340	0.422880	0.077300	0.725802
C33	C	0.839160	0.187120	0.366500	0.192204
C34	C	0.738210	0.086820	0.369300	-0.230599
C35	C	0.618020	0.082240	0.375200	0.272051
C36	C	0.601110	0.176620	0.378300	-0.230599
C37	C	0.706930	0.274460	0.375700	0.192204
C38	C	0.403920	0.801440	0.369600	0.272051
C39	C	0.414850	0.705500	0.374700	-0.230599
C40	C	0.303790	0.610180	0.371900	0.192204
C41	C	0.179710	0.700020	0.358700	0.192204
C42	C	0.285780	0.799560	0.361900	-0.230599
C43	C	0.265470	0.335740	0.707600	0.697756
C44	C	0.174650	0.271500	0.616700	-0.278270
C45	C	0.178820	0.338240	0.543900	-0.291745
C46	C	0.127540	0.422880	0.577300	0.725802
C47	C	0.347960	0.187120	0.866500	0.192204
C48	C	0.348610	0.086820	0.869300	-0.230599
C49	C	0.464220	0.082240	0.875200	0.272051
C50	C	0.575510	0.176620	0.878300	-0.230599
C51	C	0.567530	0.274460	0.875700	0.192204
C52	C	0.397520	0.801440	0.869600	0.272051
C53	C	0.290650	0.705500	0.874700	-0.230599
C54	C	0.306390	0.610180	0.871900	0.192204
C55	C	0.520310	0.700020	0.858700	0.192204
C56	C	0.513780	0.799560	0.861900	-0.230599
N1	N	0.543250	0.719700	0.130200	-0.348928
N2	N	0.521820	0.018040	0.124500	-0.207072
N3	N	0.620090	0.099380	0.127600	-0.207072
N4	N	0.580190	0.392980	0.133900	-0.348928
N5	N	0.176450	0.719700	0.630200	-0.348928
N6	N	0.496220	0.018040	0.624500	-0.207072
N7	N	0.479290	0.099380	0.627600	-0.207072
N8	N	0.812790	0.392980	0.633900	-0.348928
N9	N	0.823550	0.280300	0.369800	-0.348928
N10	N	0.503780	0.981960	0.375500	-0.207072
N11	N	0.520710	0.900620	0.372400	-0.207072
N12	N	0.187210	0.607020	0.366100	-0.348928
N13	N	0.456750	0.280300	0.869800	-0.348928
N14	N	0.478180	0.981960	0.875500	-0.207072
N15	N	0.379910	0.900620	0.872400	-0.207072
N16	N	0.419810	0.607020	0.866100	-0.348928
O1	O	0.620690	0.603180	0.302280	-0.631120
O2	O	0.771550	0.675900	0.211200	-0.631120
O3	O	0.875310	0.542420	0.335970	-0.600875
O4	O	0.914350	0.543500	0.484170	-0.654700
O5	O	0.982490	0.603180	0.802280	-0.631120
O6	O	0.904350	0.675900	0.711200	-0.631120
O7	O	0.667110	0.542420	0.835970	-0.600875
O8	O	0.629150	0.543500	0.984170	-0.654700
O9	O	0.017510	0.396820	0.197720	-0.631120
O10	O	0.095650	0.324100	0.288800	-0.631120
O11	O	0.332890	0.457580	0.164030	-0.600875
O12	O	0.370850	0.456500	0.015830	-0.654700
O13	O	0.379310	0.396820	0.697720	-0.631120
O14	O	0.228450	0.324100	0.788800	-0.631120
O15	O	0.124690	0.457580	0.664030	-0.600875
O16	O	0.085650	0.456500	0.515830	-0.654700
