data_WIHCUM_clean_PM
_symmetry_space_group_name_H-M	'P1'
_cell_length_a	5.732800
_cell_length_b	10.915200
_cell_length_c	11.266500
_cell_angle_alpha	90.000000
_cell_angle_beta	97.105998
_cell_angle_gamma	90.000000
_symmetry_Int_Tables_number 1

loop_
_symmetry_equiv_pos_as_xyz
'x,y,z'

loop_
_atom_site_label
_atom_site_type_symbol
_atom_site_fract_x
_atom_site_fract_y
_atom_site_fract_z
_atom_site_charge
Na1	Na	0.772000	0.905580	0.745480	1.062163
Na2	Na	0.024090	0.594680	0.765220	1.062163
Na3	Na	0.272000	0.094420	0.745480	1.062163
Na4	Na	0.524090	0.405320	0.765220	1.062163
H1	H	0.759900	0.541500	0.045700	0.141586
H2	H	0.611700	0.628600	0.122400	0.141586
H3	H	0.026900	0.655100	0.170000	0.078550
H4	H	0.040500	0.701700	0.036800	0.078550
H5	H	0.924600	0.706300	0.389400	0.078550
H6	H	0.758600	0.775000	0.472100	0.078550
H7	H	0.156800	0.885300	0.384700	0.141586
H8	H	0.989800	0.954900	0.466800	0.141586
H9	H	0.184000	0.916000	0.898000	0.439163
H10	H	0.074000	0.014000	0.928000	0.439163
H11	H	0.609000	0.594000	0.612000	0.439163
H12	H	0.703000	0.512000	0.569000	0.439163
H13	H	0.259900	0.458500	0.045700	0.141586
H14	H	0.111700	0.371400	0.122400	0.141586
H15	H	0.526900	0.344900	0.170000	0.078550
H16	H	0.540500	0.298300	0.036800	0.078550
H17	H	0.424600	0.293700	0.389400	0.078550
H18	H	0.258600	0.225000	0.472100	0.078550
H19	H	0.656800	0.114700	0.384700	0.141586
H20	H	0.489800	0.045100	0.466800	0.141586
H21	H	0.684000	0.084000	0.898000	0.439163
H22	H	0.574000	0.986000	0.928000	0.439163
H23	H	0.109000	0.406000	0.612000	0.439163
H24	H	0.203000	0.488000	0.569000	0.439163
C1	C	0.716200	0.627800	0.058700	-0.369894
C2	C	0.939900	0.700200	0.102200	-0.041654
C3	C	0.857100	0.786800	0.406800	-0.041654
C4	C	0.055700	0.874100	0.449000	-0.369894
C5	C	0.216200	0.372200	0.058700	-0.369894
C6	C	0.439900	0.299800	0.102200	-0.041654
C7	C	0.357100	0.213200	0.406800	-0.041654
C8	C	0.555700	0.125900	0.449000	-0.369894
S1	S	0.557080	0.685350	0.924150	1.459834
S2	S	0.898740	0.856860	0.149690	0.064917
S3	S	0.671170	0.840170	0.273640	0.064917
S4	S	0.227680	0.816760	0.579430	1.459834
S5	S	0.057080	0.314650	0.924150	1.459834
S6	S	0.398740	0.143140	0.149690	0.064917
S7	S	0.171170	0.159830	0.273640	0.064917
S8	S	0.727680	0.183240	0.579430	1.459834
O1	O	0.404000	0.584560	0.877860	-0.882078
O2	O	0.731300	0.716140	0.844670	-0.882078
O3	O	0.424000	0.791280	0.956580	-0.711662
O4	O	0.063600	0.784280	0.663230	-0.882078
O5	O	0.389800	0.914830	0.624520	-0.882078
O6	O	0.352300	0.710000	0.539820	-0.711662
O7	O	0.093500	0.966400	0.880780	-1.018146
O8	O	0.693500	0.541540	0.629800	-1.018146
O9	O	0.904000	0.415440	0.877860	-0.882078
O10	O	0.231300	0.283860	0.844670	-0.882078
O11	O	0.924000	0.208720	0.956580	-0.711662
O12	O	0.563600	0.215720	0.663230	-0.882078
O13	O	0.889800	0.085170	0.624520	-0.882078
O14	O	0.852300	0.290000	0.539820	-0.711662
O15	O	0.593500	0.033600	0.880780	-1.018146
O16	O	0.193500	0.458460	0.629800	-1.018146
