data_XADGAM_clean_PM
_symmetry_space_group_name_H-M	'P1'
_cell_length_a	10.983800
_cell_length_b	14.433600
_cell_length_c	16.122900
_cell_angle_alpha	90.000000
_cell_angle_beta	92.867102
_cell_angle_gamma	90.000000
_symmetry_Int_Tables_number 1

loop_
_symmetry_equiv_pos_as_xyz
'x,y,z'

loop_
_atom_site_label
_atom_site_type_symbol
_atom_site_fract_x
_atom_site_fract_y
_atom_site_fract_z
_atom_site_charge
Zn1	Zn	0.966890	0.624740	0.965840	0.859813
Zn2	Zn	0.476370	0.147600	0.588830	0.852759
Zn3	Zn	0.033110	0.124740	0.034160	0.859813
Zn4	Zn	0.523630	0.647600	0.411170	0.852759
H1	H	0.695500	0.899200	0.919400	0.100823
H2	H	0.587400	0.000300	0.832600	0.101023
H3	H	0.722700	0.935000	0.572500	0.104940
H4	H	0.851900	0.827800	0.516300	0.100147
H5	H	0.952900	0.718200	0.605800	0.100147
H6	H	0.933600	0.725200	0.743400	0.104940
H7	H	0.376400	0.264000	0.836600	0.101023
H8	H	0.273800	0.356200	0.929200	0.100823
H9	H	0.110200	0.596800	0.764100	0.104940
H10	H	0.122400	0.632400	0.625500	0.100147
H11	H	0.216600	0.535800	0.536500	0.100147
H12	H	0.304900	0.401800	0.582600	0.104940
H13	H	0.509400	0.984500	0.477300	0.078600
H14	H	0.417400	0.907200	0.367300	0.127463
H15	H	0.109700	0.036200	0.413200	0.127463
H16	H	0.212300	0.117300	0.517800	0.078600
H17	H	0.281100	0.679000	0.204400	0.127463
H18	H	0.189100	0.603200	0.094200	0.084805
H19	H	0.971100	0.809200	0.045700	0.084805
H20	H	0.057100	0.897400	0.151600	0.127463
H21	H	0.416000	0.248100	0.423600	0.078600
H22	H	0.513300	0.323600	0.319900	0.127463
H23	H	0.828000	0.293900	0.453300	0.127463
H24	H	0.730400	0.217800	0.551600	0.078600
H25	H	0.625300	0.533700	0.140200	0.127463
H26	H	0.725600	0.618500	0.043400	0.084805
H27	H	0.014100	0.456800	0.076500	0.084805
H28	H	0.926200	0.386000	0.188000	0.127463
H29	H	0.304500	0.399200	0.080600	0.100823
H30	H	0.412600	0.500300	0.167400	0.101023
H31	H	0.277300	0.435000	0.427500	0.104940
H32	H	0.148100	0.327800	0.483700	0.100147
H33	H	0.047100	0.218200	0.394200	0.100147
H34	H	0.066400	0.225200	0.256600	0.104940
H35	H	0.623600	0.764000	0.163400	0.101023
H36	H	0.726200	0.856200	0.070800	0.100823
H37	H	0.889800	0.096800	0.235900	0.104940
H38	H	0.877600	0.132400	0.374500	0.100147
H39	H	0.783400	0.035800	0.463500	0.100147
H40	H	0.695100	0.901800	0.417400	0.104940
H41	H	0.490600	0.484500	0.522700	0.078600
H42	H	0.582600	0.407200	0.632700	0.127463
H43	H	0.890300	0.536200	0.586800	0.127463
H44	H	0.787700	0.617300	0.482200	0.078600
H45	H	0.718900	0.179000	0.795600	0.127463
H46	H	0.810900	0.103200	0.905800	0.084805
H47	H	0.028900	0.309200	0.954300	0.084805
H48	H	0.942900	0.397400	0.848400	0.127463
H49	H	0.584000	0.748100	0.576400	0.078600
H50	H	0.486700	0.823600	0.680100	0.127463
H51	H	0.172000	0.793900	0.546700	0.127463
H52	H	0.269600	0.717800	0.448400	0.078600
H53	H	0.374700	0.033700	0.859800	0.127463
H54	H	0.274400	0.118500	0.956600	0.084805
H55	H	0.985900	0.956800	0.923500	0.084805
H56	H	0.073800	0.886000	0.812000	0.127463
C1	C	0.841500	0.761400	0.890500	0.656876
C2	C	0.782100	0.831700	0.833700	-0.121040
C3	C	0.706100	0.896400	0.862600	-0.070968
C4	C	0.642500	0.959300	0.810600	-0.075903
C5	C	0.661500	0.960400	0.726400	-0.136257
C6	C	0.763500	0.892200	0.606900	-0.120121
C7	C	0.840400	0.828400	0.573100	-0.074426
C8	C	0.902500	0.762800	0.627700	-0.074426
C9	C	0.888500	0.765500	0.709000	-0.120591
C10	C	0.805400	0.828900	0.745300	0.051893
C11	C	0.746100	0.893300	0.692200	0.056443
C12	C	0.588500	0.030600	0.673200	0.596884
C13	C	0.388400	0.268700	0.676300	0.596884
C14	C	0.327200	0.334200	0.734500	-0.136257
C15	C	0.332200	0.315100	0.816800	-0.075903
C16	C	0.270900	0.371700	0.873100	-0.070968
C17	C	0.207000	0.449600	0.846500	-0.121040
C18	C	0.150500	0.557000	0.729300	-0.120591
C19	C	0.157400	0.577800	0.645900	-0.074426
C20	C	0.214500	0.520000	0.592400	-0.074426
C21	C	0.267700	0.440400	0.620000	-0.120121
C22	C	0.267300	0.414900	0.704500	0.056443
C23	C	0.205200	0.475100	0.761500	0.051893
C24	C	0.142900	0.501000	0.912700	0.656876
C25	C	0.428600	0.998500	0.462400	0.166402
C26	C	0.372700	0.949200	0.397300	-0.183035
C27	C	0.256500	0.961900	0.378000	0.159001
C28	C	0.192600	0.026400	0.424300	-0.183035
C29	C	0.255400	0.075100	0.487000	0.166402
C30	C	0.184300	0.916100	0.308600	-0.118825
C31	C	0.234200	0.842700	0.269000	-0.118825
C32	C	0.175100	0.796700	0.195800	0.159001
C33	C	0.217000	0.706700	0.173900	-0.181223
C34	C	0.161700	0.662100	0.107700	0.171385
C35	C	0.034100	0.783200	0.078600	0.171385
C36	C	0.083500	0.837100	0.143300	-0.181223
C37	C	0.499700	0.257500	0.429300	0.166402
C38	C	0.558300	0.302200	0.366400	-0.183035
C39	C	0.686700	0.315400	0.372700	0.159001
C40	C	0.744500	0.284100	0.445300	-0.183035
C41	C	0.685700	0.239900	0.505200	0.166402
C42	C	0.755500	0.353600	0.306400	-0.118825
C43	C	0.698200	0.403800	0.245000	-0.118825
C44	C	0.768500	0.451100	0.178500	0.159001
C45	C	0.706400	0.520700	0.130900	-0.181223
C46	C	0.765400	0.569600	0.070800	0.171385
C47	C	0.937800	0.475800	0.092300	0.171385
C48	C	0.882600	0.431000	0.157900	-0.181223
C49	C	0.158500	0.261400	0.109500	0.656876
C50	C	0.217900	0.331700	0.166300	-0.121040
C51	C	0.293900	0.396400	0.137400	-0.070968
C52	C	0.357500	0.459300	0.189400	-0.075903
C53	C	0.338500	0.460400	0.273600	-0.136257
C54	C	0.236500	0.392200	0.393100	-0.120121
C55	C	0.159600	0.328400	0.426900	-0.074426
C56	C	0.097500	0.262800	0.372300	-0.074426
C57	C	0.111500	0.265500	0.291000	-0.120591
C58	C	0.194600	0.328900	0.254700	0.051893
C59	C	0.253900	0.393300	0.307800	0.056443
C60	C	0.411500	0.530600	0.326800	0.596884
C61	C	0.611600	0.768700	0.323700	0.596884
C62	C	0.672800	0.834200	0.265500	-0.136257
C63	C	0.667800	0.815100	0.183200	-0.075903
C64	C	0.729100	0.871700	0.126900	-0.070968
C65	C	0.793000	0.949600	0.153500	-0.121040
C66	C	0.849500	0.057000	0.270700	-0.120591
C67	C	0.842600	0.077800	0.354100	-0.074426
C68	C	0.785500	0.020000	0.407600	-0.074426
C69	C	0.732300	0.940400	0.380000	-0.120121
C70	C	0.732700	0.914900	0.295500	0.056443
C71	C	0.794800	0.975100	0.238500	0.051893
C72	C	0.857100	0.001000	0.087300	0.656876
C73	C	0.571400	0.498500	0.537600	0.166402
C74	C	0.627300	0.449200	0.602700	-0.183035
C75	C	0.743500	0.461900	0.622000	0.159001
C76	C	0.807400	0.526400	0.575700	-0.183035
C77	C	0.744600	0.575100	0.513000	0.166402
C78	C	0.815700	0.416100	0.691400	-0.118825
C79	C	0.765800	0.342700	0.731000	-0.118825
C80	C	0.824900	0.296700	0.804200	0.159001
C81	C	0.783000	0.206700	0.826100	-0.181223
C82	C	0.838300	0.162100	0.892300	0.171385
C83	C	0.965900	0.283200	0.921400	0.171385
C84	C	0.916500	0.337100	0.856700	-0.181223
C85	C	0.500300	0.757500	0.570700	0.166402
C86	C	0.441700	0.802200	0.633600	-0.183035
C87	C	0.313300	0.815400	0.627300	0.159001
C88	C	0.255500	0.784100	0.554700	-0.183035
C89	C	0.314300	0.739900	0.494800	0.166402
C90	C	0.244500	0.853600	0.693600	-0.118825
C91	C	0.301800	0.903800	0.755000	-0.118825
C92	C	0.231500	0.951100	0.821500	0.159001
C93	C	0.293600	0.020700	0.869100	-0.181223
C94	C	0.234600	0.069600	0.929200	0.171385
C95	C	0.062200	0.975800	0.907700	0.171385
C96	C	0.117400	0.931000	0.842100	-0.181223
N1	N	0.374600	0.064700	0.505300	-0.307399
N2	N	0.067700	0.700300	0.060100	-0.337005
N3	N	0.562000	0.226700	0.499700	-0.307399
N4	N	0.879700	0.547300	0.051500	-0.337005
N5	N	0.625400	0.564700	0.494700	-0.307399
N6	N	0.932300	0.200300	0.939900	-0.337005
N7	N	0.438000	0.726700	0.500300	-0.307399
N8	N	0.120300	0.047300	0.948500	-0.337005
O1	O	0.951700	0.739500	0.883400	-0.606923
O2	O	0.782000	0.736500	0.951500	-0.594091
O3	O	0.636000	0.069100	0.613700	-0.527662
O4	O	0.483300	0.048900	0.693400	-0.527662
O5	O	0.503300	0.255900	0.688600	-0.527662
O6	O	0.328600	0.231400	0.619600	-0.527662
O7	O	0.173200	0.491000	0.984600	-0.594091
O8	O	0.054200	0.552200	0.887000	-0.606923
O9	O	0.048300	0.239500	0.116600	-0.606923
O10	O	0.218000	0.236500	0.048500	-0.594091
O11	O	0.364000	0.569100	0.386300	-0.527662
O12	O	0.516700	0.548900	0.306600	-0.527662
O13	O	0.496700	0.755900	0.311400	-0.527662
O14	O	0.671400	0.731400	0.380400	-0.527662
O15	O	0.826800	0.991000	0.015400	-0.594091
O16	O	0.945800	0.052200	0.113000	-0.606923
