data_XAFXOT_clean_PM
_symmetry_space_group_name_H-M	'P1'
_cell_length_a	4.558800
_cell_length_b	11.901800
_cell_length_c	15.800500
_cell_angle_alpha	85.912000
_cell_angle_beta	84.811002
_cell_angle_gamma	83.248998
_symmetry_Int_Tables_number 1

loop_
_symmetry_equiv_pos_as_xyz
'x,y,z'

loop_
_atom_site_label
_atom_site_type_symbol
_atom_site_fract_x
_atom_site_fract_y
_atom_site_fract_z
_atom_site_charge
La1	La	0.808330	0.775740	0.673670	2.127990
La2	La	0.191670	0.224260	0.326330	2.127990
H1	H	0.442700	0.107100	0.561300	0.125956
H2	H	0.463200	0.101000	0.662000	0.125956
H3	H	0.892200	0.149300	0.739100	0.117925
H4	H	0.133300	0.235400	0.742500	0.117925
H5	H	0.560300	0.308400	0.530200	0.117878
H6	H	0.791300	0.399400	0.529200	0.117878
H7	H	0.236000	0.450200	0.607900	0.125956
H8	H	0.267500	0.451700	0.707800	0.125956
H9	H	0.030600	0.851600	0.922800	0.125956
H10	H	0.969600	0.972300	0.872400	0.125956
H11	H	0.572800	0.821800	0.972700	0.117925
H12	H	0.306800	0.845500	0.044200	0.117925
H13	H	0.557300	0.892900	0.438700	0.125956
H14	H	0.536800	0.899000	0.338000	0.125956
H15	H	0.107800	0.850700	0.260900	0.117925
H16	H	0.866700	0.764600	0.257500	0.117925
H17	H	0.439700	0.691600	0.469800	0.117878
H18	H	0.208700	0.600600	0.470800	0.117878
H19	H	0.764000	0.549800	0.392100	0.125956
H20	H	0.732500	0.548300	0.292200	0.125956
H21	H	0.969400	0.148400	0.077200	0.125956
H22	H	0.030400	0.027700	0.127600	0.125956
H23	H	0.427200	0.178200	0.027300	0.117925
H24	H	0.693200	0.154500	0.955800	0.117925
C1	C	0.214300	0.981600	0.624500	0.745252
C2	C	0.327500	0.097600	0.617000	-0.230807
C3	C	0.969100	0.217900	0.710500	-0.177298
C4	C	0.725600	0.314800	0.716900	0.483353
C5	C	0.975400	0.237500	0.554370	0.528443
C6	C	0.724300	0.330500	0.560200	-0.190870
C7	C	0.377800	0.455800	0.650900	-0.229667
C8	C	0.499400	0.569500	0.636590	0.745252
C9	C	0.309600	0.867700	0.812800	0.745252
C10	C	0.127500	0.913800	0.891000	-0.229667
C11	C	0.336000	0.072500	0.939500	0.483353
C12	C	0.457700	0.881800	0.006200	-0.177196
C13	C	0.785700	0.018400	0.375500	0.745252
C14	C	0.672500	0.902400	0.383000	-0.230807
C15	C	0.030900	0.782100	0.289500	-0.177298
C16	C	0.274400	0.685200	0.283100	0.483353
C17	C	0.024600	0.762500	0.445630	0.528443
C18	C	0.275700	0.669500	0.439800	-0.190870
C19	C	0.622200	0.544200	0.349100	-0.229667
C20	C	0.500600	0.430500	0.363410	0.745252
C21	C	0.690400	0.132300	0.187200	0.745252
C22	C	0.872500	0.086200	0.109000	-0.229667
C23	C	0.664000	0.927500	0.060500	0.483353
C24	C	0.542300	0.118200	0.993800	-0.177196
N1	N	0.090700	0.190900	0.624540	-0.043780
N2	N	0.607500	0.359600	0.645600	-0.056873
N3	N	0.304600	0.963000	0.947440	-0.056592
N4	N	0.909300	0.809100	0.375460	-0.043780
N5	N	0.392500	0.640400	0.354400	-0.056873
N6	N	0.695400	0.037000	0.052560	-0.056592
O1	O	0.398700	0.897880	0.607000	-0.730610
O2	O	0.948400	0.975970	0.648740	-0.730610
O3	O	0.074800	0.208120	0.482740	-0.569467
O4	O	0.636600	0.347400	0.787740	-0.488107
O5	O	0.765400	0.574470	0.612130	-0.730610
O6	O	0.322200	0.656970	0.651370	-0.730610
O7	O	0.196100	0.798670	0.773740	-0.730610
O8	O	0.559100	0.900200	0.793470	-0.730610
O9	O	0.200200	0.139600	0.889610	-0.488107
O10	O	0.601300	0.102120	0.393000	-0.730610
O11	O	0.051600	0.024030	0.351260	-0.730610
O12	O	0.925200	0.791880	0.517260	-0.569467
O13	O	0.363400	0.652600	0.212260	-0.488107
O14	O	0.234600	0.425530	0.387870	-0.730610
O15	O	0.677800	0.343030	0.348630	-0.730610
O16	O	0.803900	0.201330	0.226260	-0.730610
O17	O	0.440900	0.099800	0.206530	-0.730610
O18	O	0.799800	0.860400	0.110390	-0.488107
