data_XEGJOK_clean_PM
_symmetry_space_group_name_H-M	'P1'
_cell_length_a	13.356000
_cell_length_b	19.441300
_cell_length_c	19.441300
_cell_angle_alpha	102.157999
_cell_angle_beta	93.847401
_cell_angle_gamma	93.847400
_symmetry_Int_Tables_number 1

loop_
_symmetry_equiv_pos_as_xyz
'x,y,z'

loop_
_atom_site_label
_atom_site_type_symbol
_atom_site_fract_x
_atom_site_fract_y
_atom_site_fract_z
_atom_site_charge
Gd1	Gd	0.352470	0.984790	0.461260	2.159131
Gd2	Gd	0.147530	0.538740	0.015210	2.159131
Gd3	Gd	0.647530	0.015210	0.538740	2.159131
Gd4	Gd	0.852470	0.461260	0.984790	2.159131
H1	H	0.295900	0.830700	0.598100	0.127644
H2	H	0.570100	0.883600	0.696400	0.127644
H3	H	0.340200	0.573400	0.811800	0.129319
H4	H	0.284700	0.749500	0.943700	0.129319
H5	H	0.322300	0.146600	0.569800	0.127644
H6	H	0.506400	0.163300	0.743100	0.127644
H7	H	0.204100	0.401900	0.169300	0.127644
H8	H	0.929900	0.303600	0.116400	0.127644
H9	H	0.159800	0.188200	0.426600	0.129319
H10	H	0.215300	0.056300	0.250500	0.129319
H11	H	0.177700	0.430200	0.853400	0.127644
H12	H	0.993600	0.256900	0.836700	0.127644
H13	H	0.704100	0.169300	0.401900	0.127644
H14	H	0.429900	0.116400	0.303600	0.127644
H15	H	0.659800	0.426600	0.188200	0.129319
H16	H	0.715300	0.250500	0.056300	0.129319
H17	H	0.677700	0.853400	0.430200	0.127644
H18	H	0.493600	0.836700	0.256900	0.127644
H19	H	0.795900	0.598100	0.830700	0.127644
H20	H	0.070100	0.696400	0.883600	0.127644
H21	H	0.840200	0.811800	0.573400	0.129319
H22	H	0.784700	0.943700	0.749500	0.129319
H23	H	0.822300	0.569800	0.146600	0.127644
H24	H	0.006400	0.743100	0.163300	0.127644
C1	C	0.458100	0.908800	0.585200	0.766972
C2	C	0.437500	0.861900	0.636700	-0.106795
C3	C	0.344400	0.826400	0.633200	-0.003859
C4	C	0.320400	0.785500	0.678900	-0.020501
C5	C	0.388600	0.776800	0.732800	0.047540
C6	C	0.480400	0.814600	0.737200	-0.020501
C7	C	0.507400	0.858300	0.690700	-0.003859
C8	C	0.364800	0.733500	0.787100	0.047540
C9	C	0.367800	0.660900	0.775700	-0.013944
C10	C	0.337500	0.622100	0.822100	-0.014487
C11	C	0.303000	0.655500	0.884100	-0.081098
C12	C	0.303800	0.726600	0.900200	-0.014487
C13	C	0.333200	0.765600	0.851800	-0.013944
C14	C	0.262600	0.612000	0.934400	0.636956
C15	C	0.495400	0.098900	0.608500	0.750234
C16	C	0.420500	0.141800	0.650600	-0.101631
C17	C	0.335700	0.160800	0.618600	-0.006788
C18	C	0.269400	0.201300	0.658300	-0.020501
C19	C	0.284800	0.223100	0.730700	0.047540
C20	C	0.376000	0.207900	0.762300	-0.020501
C21	C	0.444200	0.169800	0.722000	-0.006788
C22	C	0.041900	0.414800	0.091200	0.766972
C23	C	0.062500	0.363300	0.138100	-0.106795
C24	C	0.155600	0.366800	0.173600	-0.003859
C25	C	0.179600	0.321100	0.214500	-0.020501
C26	C	0.111400	0.267200	0.223200	0.047540
C27	C	0.019600	0.262800	0.185400	-0.020501
C28	C	0.992600	0.309300	0.141700	-0.003859
C29	C	0.135200	0.212900	0.266500	0.047540
C30	C	0.132200	0.224300	0.339100	-0.013944
C31	C	0.162500	0.177900	0.377900	-0.014487
C32	C	0.197000	0.115900	0.344500	-0.081098
C33	C	0.196200	0.099800	0.273400	-0.014487
C34	C	0.166800	0.148200	0.234400	-0.013944
C35	C	0.237400	0.065600	0.388000	0.636956
C36	C	0.004600	0.391500	0.901100	0.750234
C37	C	0.079500	0.349400	0.858200	-0.101631
C38	C	0.164300	0.381400	0.839200	-0.006788
C39	C	0.230600	0.341700	0.798700	-0.020501
C40	C	0.215200	0.269300	0.776900	0.047540
C41	C	0.124000	0.237700	0.792100	-0.020501
C42	C	0.055800	0.278000	0.830200	-0.006788
C43	C	0.541900	0.091200	0.414800	0.766972
C44	C	0.562500	0.138100	0.363300	-0.106795
C45	C	0.655600	0.173600	0.366800	-0.003859
C46	C	0.679600	0.214500	0.321100	-0.020501
C47	C	0.611400	0.223200	0.267200	0.047540
C48	C	0.519600	0.185400	0.262800	-0.020501
C49	C	0.492600	0.141700	0.309300	-0.003859
C50	C	0.635200	0.266500	0.212900	0.047540
C51	C	0.632200	0.339100	0.224300	-0.013944
C52	C	0.662500	0.377900	0.177900	-0.014487
C53	C	0.697000	0.344500	0.115900	-0.081098
C54	C	0.696200	0.273400	0.099800	-0.014487
C55	C	0.666800	0.234400	0.148200	-0.013944
C56	C	0.737400	0.388000	0.065600	0.636956
C57	C	0.504600	0.901100	0.391500	0.750234
C58	C	0.579500	0.858200	0.349400	-0.101631
C59	C	0.664300	0.839200	0.381400	-0.006788
C60	C	0.730600	0.798700	0.341700	-0.020501
C61	C	0.715200	0.776900	0.269300	0.047540
C62	C	0.624000	0.792100	0.237700	-0.020501
C63	C	0.555800	0.830200	0.278000	-0.006788
C64	C	0.958100	0.585200	0.908800	0.766972
C65	C	0.937500	0.636700	0.861900	-0.106795
C66	C	0.844400	0.633200	0.826400	-0.003859
C67	C	0.820400	0.678900	0.785500	-0.020501
C68	C	0.888600	0.732800	0.776800	0.047540
C69	C	0.980400	0.737200	0.814600	-0.020501
C70	C	0.007400	0.690700	0.858300	-0.003859
C71	C	0.864800	0.787100	0.733500	0.047540
C72	C	0.867800	0.775700	0.660900	-0.013944
C73	C	0.837500	0.822100	0.622100	-0.014487
C74	C	0.803000	0.884100	0.655500	-0.081098
C75	C	0.803800	0.900200	0.726600	-0.014487
C76	C	0.833200	0.851800	0.765600	-0.013944
C77	C	0.762600	0.934400	0.612000	0.636956
C78	C	0.995400	0.608500	0.098900	0.750234
C79	C	0.920500	0.650600	0.141800	-0.101631
C80	C	0.835700	0.618600	0.160800	-0.006788
C81	C	0.769400	0.658300	0.201300	-0.020501
C82	C	0.784800	0.730700	0.223100	0.047540
C83	C	0.876000	0.762300	0.207900	-0.020501
C84	C	0.944200	0.722000	0.169800	-0.006788
N1	N	0.220500	0.752100	0.671900	0.603968
N2	N	0.557300	0.814500	0.795900	0.603968
N3	N	0.407100	0.622800	0.710000	0.603968
N4	N	0.328400	0.841400	0.870400	0.603968
N5	N	0.183700	0.219800	0.622600	0.603968
N6	N	0.399700	0.228900	0.836900	0.603968
N7	N	0.279500	0.328100	0.247900	0.603968
N8	N	0.942700	0.204100	0.185500	0.603968
N9	N	0.092900	0.290000	0.377200	0.603968
N10	N	0.171600	0.129600	0.158600	0.603968
N11	N	0.316300	0.377400	0.780200	0.603968
N12	N	0.100300	0.163100	0.771100	0.603968
N13	N	0.779500	0.247900	0.328100	0.603968
N14	N	0.442700	0.185500	0.204100	0.603968
N15	N	0.592900	0.377200	0.290000	0.603968
N16	N	0.671600	0.158600	0.129600	0.603968
N17	N	0.816300	0.780200	0.377400	0.603968
N18	N	0.600300	0.771100	0.163100	0.603968
N19	N	0.720500	0.671900	0.752100	0.603968
N20	N	0.057300	0.795900	0.814500	0.603968
N21	N	0.907100	0.710000	0.622800	0.603968
N22	N	0.828400	0.870400	0.841400	0.603968
N23	N	0.683700	0.622600	0.219800	0.603968
N24	N	0.899700	0.836900	0.228900	0.603968
O1	O	0.391600	0.910300	0.538900	-0.690050
O2	O	0.544500	0.943200	0.597600	-0.690050
O3	O	0.238800	0.547500	0.909700	-0.630246
O4	O	0.248800	0.641800	0.995600	-0.630246
O5	O	0.157100	0.768000	0.633800	-0.359408
O6	O	0.196200	0.711100	0.706300	-0.359408
O7	O	0.619200	0.870600	0.814200	-0.359408
O8	O	0.555400	0.774600	0.830600	-0.359408
O9	O	0.437600	0.655500	0.668900	-0.359408
O10	O	0.420400	0.562900	0.706900	-0.359408
O11	O	0.314500	0.874400	0.824200	-0.359408
O12	O	0.331700	0.870200	0.934200	-0.359408
O13	O	0.459700	0.059700	0.550900	-0.828612
O14	O	0.582200	0.102500	0.632500	-0.617150
O15	O	0.110000	0.236200	0.649000	-0.359408
O16	O	0.159000	0.199100	0.560900	-0.359408
O17	O	0.338200	0.239300	0.877900	-0.359408
O18	O	0.489900	0.239400	0.856400	-0.359408
O19	O	0.108400	0.461100	0.089700	-0.690050
O20	O	0.955500	0.402400	0.056800	-0.690050
O21	O	0.261200	0.090300	0.452500	-0.630246
O22	O	0.251200	0.004400	0.358200	-0.630246
O23	O	0.342900	0.366200	0.232000	-0.359408
O24	O	0.303800	0.293700	0.288900	-0.359408
O25	O	0.880800	0.185800	0.129400	-0.359408
O26	O	0.944600	0.169400	0.225400	-0.359408
O27	O	0.062400	0.331100	0.344500	-0.359408
O28	O	0.079600	0.293100	0.437100	-0.359408
O29	O	0.185500	0.175800	0.125600	-0.359408
O30	O	0.168300	0.065800	0.129800	-0.359408
O31	O	0.040300	0.449100	0.940300	-0.828612
O32	O	0.917800	0.367500	0.897500	-0.617150
O33	O	0.390000	0.351000	0.763800	-0.359408
O34	O	0.341000	0.439100	0.800900	-0.359408
O35	O	0.161800	0.122100	0.760700	-0.359408
O36	O	0.010100	0.143600	0.760600	-0.359408
O37	O	0.608400	0.089700	0.461100	-0.690050
O38	O	0.455500	0.056800	0.402400	-0.690050
O39	O	0.761200	0.452500	0.090300	-0.630246
O40	O	0.751200	0.358200	0.004400	-0.630246
O41	O	0.842900	0.232000	0.366200	-0.359408
O42	O	0.803800	0.288900	0.293700	-0.359408
O43	O	0.380800	0.129400	0.185800	-0.359408
O44	O	0.444600	0.225400	0.169400	-0.359408
O45	O	0.562400	0.344500	0.331100	-0.359408
O46	O	0.579600	0.437100	0.293100	-0.359408
O47	O	0.685500	0.125600	0.175800	-0.359408
O48	O	0.668300	0.129800	0.065800	-0.359408
O49	O	0.540300	0.940300	0.449100	-0.828612
O50	O	0.417800	0.897500	0.367500	-0.617150
O51	O	0.890000	0.763800	0.351000	-0.359408
O52	O	0.841000	0.800900	0.439100	-0.359408
O53	O	0.661800	0.760700	0.122100	-0.359408
O54	O	0.510100	0.760600	0.143600	-0.359408
O55	O	0.891600	0.538900	0.910300	-0.690050
O56	O	0.044500	0.597600	0.943200	-0.690050
O57	O	0.738800	0.909700	0.547500	-0.630246
O58	O	0.748800	0.995600	0.641800	-0.630246
O59	O	0.657100	0.633800	0.768000	-0.359408
O60	O	0.696200	0.706300	0.711100	-0.359408
O61	O	0.119200	0.814200	0.870600	-0.359408
O62	O	0.055400	0.830600	0.774600	-0.359408
O63	O	0.937600	0.668900	0.655500	-0.359408
O64	O	0.920400	0.706900	0.562900	-0.359408
O65	O	0.814500	0.824200	0.874400	-0.359408
O66	O	0.831700	0.934200	0.870200	-0.359408
O67	O	0.959700	0.550900	0.059700	-0.828612
O68	O	0.082200	0.632500	0.102500	-0.617150
O69	O	0.610000	0.649000	0.236200	-0.359408
O70	O	0.659000	0.560900	0.199100	-0.359408
O71	O	0.838200	0.877900	0.239300	-0.359408
O72	O	0.989900	0.856400	0.239400	-0.359408
