data_XEJWUG_clean_PM
_symmetry_space_group_name_H-M	'P1'
_cell_length_a	6.746000
_cell_length_b	7.597000
_cell_length_c	22.334000
_cell_angle_alpha	90.000000
_cell_angle_beta	90.000000
_cell_angle_gamma	90.000000
_symmetry_Int_Tables_number 1

loop_
_symmetry_equiv_pos_as_xyz
'x,y,z'

loop_
_atom_site_label
_atom_site_type_symbol
_atom_site_fract_x
_atom_site_fract_y
_atom_site_fract_z
_atom_site_charge
Co1	Co	0.464660	0.248490	0.289100	0.973636
Co2	Co	0.535340	0.248490	0.710900	0.973636
Co3	Co	0.964660	0.751510	0.210900	0.973636
Co4	Co	0.035340	0.751510	0.789100	0.973636
H1	H	0.372500	0.368700	0.114800	0.144043
H2	H	0.180000	0.248700	0.121500	0.144043
H3	H	0.477000	0.084300	0.128600	0.065828
H4	H	0.714200	0.243800	0.185200	0.376709
H5	H	0.045700	0.336300	0.333200	0.078511
H6	H	0.847400	0.319000	0.418200	0.125755
H7	H	0.304800	0.090700	0.504400	0.125755
H8	H	0.478800	0.088900	0.415100	0.078511
H9	H	0.627500	0.368700	0.885200	0.144043
H10	H	0.820000	0.248700	0.878500	0.144043
H11	H	0.523000	0.084300	0.871400	0.065828
H12	H	0.285800	0.243800	0.814800	0.376709
H13	H	0.954300	0.336300	0.666800	0.078511
H14	H	0.152600	0.319000	0.581800	0.125755
H15	H	0.695200	0.090700	0.495600	0.125755
H16	H	0.521200	0.088900	0.584900	0.078511
H17	H	0.872500	0.631300	0.385200	0.144043
H18	H	0.680000	0.751300	0.378500	0.144043
H19	H	0.977000	0.915700	0.371400	0.065828
H20	H	0.214200	0.756200	0.314800	0.376709
H21	H	0.545700	0.663700	0.166800	0.078511
H22	H	0.347400	0.681000	0.081800	0.125755
H23	H	0.804800	0.909300	0.995600	0.125755
H24	H	0.978800	0.911100	0.084900	0.078511
H25	H	0.127500	0.631300	0.614800	0.144043
H26	H	0.320000	0.751300	0.621500	0.144043
H27	H	0.023000	0.915700	0.628600	0.065828
H28	H	0.785800	0.756200	0.685200	0.376709
H29	H	0.454300	0.663700	0.833200	0.078511
H30	H	0.652600	0.681000	0.918200	0.125755
H31	H	0.195200	0.909300	0.004400	0.125755
H32	H	0.021200	0.911100	0.915100	0.078511
C1	C	0.214100	0.422700	0.191390	0.736955
C2	C	0.294300	0.298200	0.143620	-0.402399
C3	C	0.422300	0.146300	0.164480	0.155405
C4	C	0.300400	0.015400	0.201220	0.606252
C5	C	0.099100	0.285900	0.368600	0.174417
C6	C	0.980300	0.277800	0.419500	-0.201240
C7	C	0.058500	0.208800	0.472200	0.083954
C8	C	0.246900	0.140900	0.469600	-0.201240
C9	C	0.353200	0.145300	0.416500	0.174417
C10	C	0.785900	0.422700	0.808610	0.736955
C11	C	0.705700	0.298200	0.856380	-0.402399
C12	C	0.577700	0.146300	0.835520	0.155405
C13	C	0.699600	0.015400	0.798780	0.606252
C14	C	0.900900	0.285900	0.631400	0.174417
C15	C	0.019700	0.277800	0.580500	-0.201240
C16	C	0.941500	0.208800	0.527800	0.083954
C17	C	0.753100	0.140900	0.530400	-0.201240
C18	C	0.646800	0.145300	0.583500	0.174417
C19	C	0.714100	0.577300	0.308610	0.736955
C20	C	0.794300	0.701800	0.356380	-0.402399
C21	C	0.922300	0.853700	0.335520	0.155405
C22	C	0.800400	0.984600	0.298780	0.606252
C23	C	0.599100	0.714100	0.131400	0.174417
C24	C	0.480300	0.722200	0.080500	-0.201240
C25	C	0.558500	0.791200	0.027800	0.083954
C26	C	0.746900	0.859100	0.030400	-0.201240
C27	C	0.853200	0.854700	0.083500	0.174417
C28	C	0.285900	0.577300	0.691390	0.736955
C29	C	0.205700	0.701800	0.643620	-0.402399
C30	C	0.077700	0.853700	0.664480	0.155405
C31	C	0.199600	0.984600	0.701220	0.606252
C32	C	0.400900	0.714100	0.868600	0.174417
C33	C	0.519700	0.722200	0.919500	-0.201240
C34	C	0.441500	0.791200	0.972200	0.083954
C35	C	0.253100	0.859100	0.969600	-0.201240
C36	C	0.146800	0.854700	0.916500	0.174417
N1	N	0.287000	0.225000	0.367480	-0.338531
N2	N	0.713000	0.225000	0.632520	-0.338531
N3	N	0.787000	0.775000	0.132520	-0.338531
N4	N	0.213000	0.775000	0.867480	-0.338531
O1	O	0.253300	0.400200	0.245970	-0.600694
O2	O	0.107800	0.544600	0.171480	-0.600694
O3	O	0.584200	0.216900	0.198790	-0.576689
O4	O	0.324500	0.018500	0.257670	-0.561351
O5	O	0.182400	0.918400	0.173740	-0.561351
O6	O	0.746700	0.400200	0.754030	-0.600694
O7	O	0.892200	0.544600	0.828520	-0.600694
O8	O	0.415800	0.216900	0.801210	-0.576689
O9	O	0.675500	0.018500	0.742330	-0.561351
O10	O	0.817600	0.918400	0.826260	-0.561351
O11	O	0.753300	0.599800	0.254030	-0.600694
O12	O	0.607800	0.455400	0.328520	-0.600694
O13	O	0.084200	0.783100	0.301210	-0.576689
O14	O	0.824500	0.981500	0.242330	-0.561351
O15	O	0.682400	0.081600	0.326260	-0.561351
O16	O	0.246700	0.599800	0.745970	-0.600694
O17	O	0.392200	0.455400	0.671480	-0.600694
O18	O	0.915800	0.783100	0.698790	-0.576689
O19	O	0.175500	0.981500	0.757670	-0.561351
O20	O	0.317600	0.081600	0.673740	-0.561351
