data_XEJXER_clean_PM
_symmetry_space_group_name_H-M	'P1'
_cell_length_a	9.687900
_cell_length_b	10.456900
_cell_length_c	23.698700
_cell_angle_alpha	90.000000
_cell_angle_beta	90.000000
_cell_angle_gamma	90.000000
_symmetry_Int_Tables_number 1

loop_
_symmetry_equiv_pos_as_xyz
'x,y,z'

loop_
_atom_site_label
_atom_site_type_symbol
_atom_site_fract_x
_atom_site_fract_y
_atom_site_fract_z
_atom_site_charge
Ni1	Ni	0.616850	0.505330	0.212480	0.874551
Ni2	Ni	0.642390	0.995060	0.286400	0.873256
Ni3	Ni	0.383150	0.505330	0.787520	0.874551
Ni4	Ni	0.357610	0.995060	0.713600	0.873256
Ni5	Ni	0.116850	0.494670	0.287520	0.874551
Ni6	Ni	0.142390	0.004940	0.213600	0.873256
Ni7	Ni	0.883150	0.494670	0.712480	0.874551
Ni8	Ni	0.857610	0.004940	0.786400	0.873256
H1	H	0.743400	0.591600	0.355000	0.066713
H2	H	0.788100	0.474000	0.278900	0.378957
H3	H	0.544700	0.479500	0.378300	0.146968
H4	H	0.508500	0.628500	0.376900	0.146968
H5	H	0.572600	0.926100	0.134700	0.066713
H6	H	0.692000	0.846900	0.207800	0.378957
H7	H	0.700900	0.121100	0.136300	0.146968
H8	H	0.540100	0.145000	0.126200	0.146968
H9	H	0.518500	0.408400	0.097400	0.081706
H10	H	0.380300	0.472000	0.022900	0.124933
H11	H	0.319500	0.809000	0.103300	0.124933
H12	H	0.452400	0.732500	0.176900	0.081706
H13	H	0.232900	0.630300	0.977100	0.103015
H14	H	0.244700	0.876500	0.020800	0.103015
H15	H	0.994500	0.109900	0.891800	0.081706
H16	H	0.134700	0.044900	0.965900	0.124933
H17	H	0.107500	0.682600	0.906200	0.124933
H18	H	0.963200	0.757700	0.835500	0.081706
H19	H	0.256600	0.591600	0.645000	0.066713
H20	H	0.211900	0.474000	0.721100	0.378957
H21	H	0.455300	0.479500	0.621700	0.146968
H22	H	0.491500	0.628500	0.623100	0.146968
H23	H	0.427400	0.926100	0.865300	0.066713
H24	H	0.308000	0.846900	0.792200	0.378957
H25	H	0.299100	0.121100	0.863700	0.146968
H26	H	0.459900	0.145000	0.873800	0.146968
H27	H	0.481500	0.408400	0.902600	0.081706
H28	H	0.619700	0.472000	0.977100	0.124933
H29	H	0.680500	0.809000	0.896700	0.124933
H30	H	0.547600	0.732500	0.823100	0.081706
H31	H	0.767100	0.630300	0.022900	0.103015
H32	H	0.755300	0.876500	0.979200	0.103015
H33	H	0.005500	0.109900	0.108200	0.081706
H34	H	0.865300	0.044900	0.034100	0.124933
H35	H	0.892500	0.682600	0.093800	0.124933
H36	H	0.036800	0.757700	0.164500	0.081706
H37	H	0.243400	0.408400	0.145000	0.066713
H38	H	0.288100	0.526000	0.221100	0.378957
H39	H	0.044700	0.520500	0.121700	0.146968
H40	H	0.008500	0.371500	0.123100	0.146968
H41	H	0.072600	0.073900	0.365300	0.066713
H42	H	0.192000	0.153100	0.292200	0.378957
H43	H	0.200900	0.878900	0.363700	0.146968
H44	H	0.040100	0.855000	0.373800	0.146968
H45	H	0.018500	0.591600	0.402600	0.081706
H46	H	0.880300	0.528000	0.477100	0.124933
H47	H	0.819500	0.191000	0.396700	0.124933
H48	H	0.952400	0.267500	0.323100	0.081706
H49	H	0.732900	0.369700	0.522900	0.103015
H50	H	0.744700	0.123500	0.479200	0.103015
H51	H	0.494500	0.890100	0.608200	0.081706
H52	H	0.634700	0.955100	0.534100	0.124933
H53	H	0.607500	0.317400	0.593800	0.124933
H54	H	0.463200	0.242300	0.664500	0.081706
H55	H	0.756600	0.408400	0.855000	0.066713
H56	H	0.711900	0.526000	0.778900	0.378957
H57	H	0.955300	0.520500	0.878300	0.146968
H58	H	0.991500	0.371500	0.876900	0.146968
H59	H	0.927400	0.073900	0.634700	0.066713
H60	H	0.808000	0.153100	0.707800	0.378957
H61	H	0.799100	0.878900	0.636300	0.146968
H62	H	0.959900	0.855000	0.626200	0.146968
H63	H	0.981500	0.591600	0.597400	0.081706
H64	H	0.119700	0.528000	0.522900	0.124933
H65	H	0.180500	0.191000	0.603300	0.124933
H66	H	0.047600	0.267500	0.676900	0.081706
H67	H	0.267100	0.369700	0.477100	0.103015
H68	H	0.255300	0.123500	0.520800	0.103015
H69	H	0.505500	0.890100	0.391800	0.081706
H70	H	0.365300	0.955100	0.465900	0.124933
H71	H	0.392500	0.317400	0.406200	0.124933
H72	H	0.536800	0.242300	0.335500	0.081706
C1	C	0.665830	0.704700	0.289930	0.609249
C2	C	0.671400	0.581640	0.325040	0.176629
C3	C	0.533500	0.554300	0.353100	-0.413502
C4	C	0.414700	0.527530	0.312830	0.721966
C5	C	0.442500	0.968250	0.203150	0.609249
C6	C	0.579100	0.978490	0.169930	0.176629
C7	C	0.608900	0.117100	0.154460	-0.413502
C8	C	0.606800	0.211900	0.203540	0.721966
C9	C	0.478000	0.491100	0.098470	0.167211
C10	C	0.396800	0.529000	0.053410	-0.201165
C11	C	0.339400	0.650800	0.052990	0.122771
C12	C	0.360200	0.726500	0.100790	-0.201165
C13	C	0.440400	0.680300	0.144490	0.167211
C14	C	0.258300	0.693300	0.004060	-0.124651
C15	C	0.217500	0.813100	0.994330	-0.124651
C16	C	0.015600	0.021500	0.895490	0.167211
C17	C	0.100300	0.983500	0.939890	-0.201165
C18	C	0.134100	0.855100	0.945960	0.122771
C19	C	0.083500	0.770600	0.904940	-0.201165
C20	C	0.998200	0.816500	0.862530	0.167211
C21	C	0.334170	0.704700	0.710070	0.609249
C22	C	0.328600	0.581640	0.674960	0.176629
C23	C	0.466500	0.554300	0.646900	-0.413502
C24	C	0.585300	0.527530	0.687170	0.721966
C25	C	0.557500	0.968250	0.796850	0.609249
C26	C	0.420900	0.978490	0.830070	0.176629
C27	C	0.391100	0.117100	0.845540	-0.413502
C28	C	0.393200	0.211900	0.796460	0.721966
C29	C	0.522000	0.491100	0.901530	0.167211
C30	C	0.603200	0.529000	0.946590	-0.201165
C31	C	0.660600	0.650800	0.947010	0.122771
C32	C	0.639800	0.726500	0.899210	-0.201165
C33	C	0.559600	0.680300	0.855510	0.167211
C34	C	0.741700	0.693300	0.995940	-0.124651
C35	C	0.782500	0.813100	0.005670	-0.124651
C36	C	0.984400	0.021500	0.104510	0.167211
C37	C	0.899700	0.983500	0.060110	-0.201165
C38	C	0.865900	0.855100	0.054040	0.122771
C39	C	0.916500	0.770600	0.095060	-0.201165
C40	C	0.001800	0.816500	0.137470	0.167211
C41	C	0.165830	0.295300	0.210070	0.609249
C42	C	0.171400	0.418360	0.174960	0.176629
C43	C	0.033500	0.445700	0.146900	-0.413502
C44	C	0.914700	0.472470	0.187170	0.721966
C45	C	0.942500	0.031750	0.296850	0.609249
C46	C	0.079100	0.021510	0.330070	0.176629
C47	C	0.108900	0.882900	0.345540	-0.413502
C48	C	0.106800	0.788100	0.296460	0.721966
C49	C	0.978000	0.508900	0.401530	0.167211
C50	C	0.896800	0.471000	0.446590	-0.201165
C51	C	0.839400	0.349200	0.447010	0.122771
C52	C	0.860200	0.273500	0.399210	-0.201165
C53	C	0.940400	0.319700	0.355510	0.167211
C54	C	0.758300	0.306700	0.495940	-0.124651
C55	C	0.717500	0.186900	0.505670	-0.124651
C56	C	0.515600	0.978500	0.604510	0.167211
C57	C	0.600300	0.016500	0.560110	-0.201165
C58	C	0.634100	0.144900	0.554040	0.122771
C59	C	0.583500	0.229400	0.595060	-0.201165
C60	C	0.498200	0.183500	0.637470	0.167211
C61	C	0.834170	0.295300	0.789930	0.609249
C62	C	0.828600	0.418360	0.825040	0.176629
C63	C	0.966500	0.445700	0.853100	-0.413502
C64	C	0.085300	0.472470	0.812830	0.721966
C65	C	0.057500	0.031750	0.703150	0.609249
C66	C	0.920900	0.021510	0.669930	0.176629
C67	C	0.891100	0.882900	0.654460	-0.413502
C68	C	0.893200	0.788100	0.703540	0.721966
C69	C	0.022000	0.508900	0.598470	0.167211
C70	C	0.103200	0.471000	0.553410	-0.201165
C71	C	0.160600	0.349200	0.552990	0.122771
C72	C	0.139800	0.273500	0.600790	-0.201165
C73	C	0.059600	0.319700	0.644490	0.167211
C74	C	0.241700	0.306700	0.504060	-0.124651
C75	C	0.282500	0.186900	0.494330	-0.124651
C76	C	0.484400	0.978500	0.395490	0.167211
C77	C	0.399700	0.016500	0.439890	-0.201165
C78	C	0.365900	0.144900	0.445960	0.122771
C79	C	0.416500	0.229400	0.404940	-0.201165
C80	C	0.501800	0.183500	0.362530	0.167211
N1	N	0.502420	0.565390	0.143540	-0.305845
N2	N	0.962650	0.940370	0.857840	-0.305845
N3	N	0.497580	0.565390	0.856460	-0.305845
N4	N	0.037350	0.940370	0.142160	-0.305845
N5	N	0.002420	0.434610	0.356460	-0.305845
N6	N	0.462650	0.059630	0.642160	-0.305845
N7	N	0.997580	0.434610	0.643540	-0.305845
N8	N	0.537350	0.059630	0.357840	-0.305845
O1	O	0.666200	0.692210	0.236490	-0.545422
O2	O	0.660560	0.807590	0.316770	-0.545422
O3	O	0.705260	0.473290	0.291030	-0.589375
O4	O	0.438200	0.524190	0.260140	-0.584144
O5	O	0.297970	0.511670	0.334190	-0.584144
O6	O	0.451600	0.949480	0.254910	-0.545422
O7	O	0.331620	0.981570	0.175490	-0.545422
O8	O	0.692190	0.933200	0.203730	-0.589375
O9	O	0.632560	0.176230	0.252890	-0.584144
O10	O	0.580560	0.324730	0.188900	-0.584144
O11	O	0.333800	0.692210	0.763510	-0.545422
O12	O	0.339440	0.807590	0.683230	-0.545422
O13	O	0.294740	0.473290	0.708970	-0.589375
O14	O	0.561800	0.524190	0.739860	-0.584144
O15	O	0.702030	0.511670	0.665810	-0.584144
O16	O	0.548400	0.949480	0.745090	-0.545422
O17	O	0.668380	0.981570	0.824510	-0.545422
O18	O	0.307810	0.933200	0.796270	-0.589375
O19	O	0.367440	0.176230	0.747110	-0.584144
O20	O	0.419440	0.324730	0.811100	-0.584144
O21	O	0.166200	0.307790	0.263510	-0.545422
O22	O	0.160560	0.192410	0.183230	-0.545422
O23	O	0.205260	0.526710	0.208970	-0.589375
O24	O	0.938200	0.475810	0.239860	-0.584144
O25	O	0.797970	0.488330	0.165810	-0.584144
O26	O	0.951600	0.050520	0.245090	-0.545422
O27	O	0.831620	0.018430	0.324510	-0.545422
O28	O	0.192190	0.066800	0.296270	-0.589375
O29	O	0.132560	0.823770	0.247110	-0.584144
O30	O	0.080560	0.675270	0.311100	-0.584144
O31	O	0.833800	0.307790	0.736490	-0.545422
O32	O	0.839440	0.192410	0.816770	-0.545422
O33	O	0.794740	0.526710	0.791030	-0.589375
O34	O	0.061800	0.475810	0.760140	-0.584144
O35	O	0.202030	0.488330	0.834190	-0.584144
O36	O	0.048400	0.050520	0.754910	-0.545422
O37	O	0.168380	0.018430	0.675490	-0.545422
O38	O	0.807810	0.066800	0.703730	-0.589375
O39	O	0.867440	0.823770	0.752890	-0.584144
O40	O	0.919440	0.675270	0.688900	-0.584144
