data_XEXLAP_clean_PM
_symmetry_space_group_name_H-M	'P1'
_cell_length_a	5.016900
_cell_length_b	20.694900
_cell_length_c	24.985100
_cell_angle_alpha	90.000000
_cell_angle_beta	90.000000
_cell_angle_gamma	95.721001
_symmetry_Int_Tables_number 1

loop_
_symmetry_equiv_pos_as_xyz
'x,y,z'

loop_
_atom_site_label
_atom_site_type_symbol
_atom_site_fract_x
_atom_site_fract_y
_atom_site_fract_z
_atom_site_charge
Mn1	Mn	0.179340	0.061540	0.960450	1.066836
Mn2	Mn	0.320660	0.438460	0.460450	1.066836
Mn3	Mn	0.820660	0.938460	0.039550	1.066836
Mn4	Mn	0.679340	0.561540	0.539550	1.066836
H1	H	0.681600	0.341600	0.402400	0.081805
H2	H	0.691700	0.279200	0.324500	0.149912
H3	H	0.079900	0.369800	0.263200	0.149912
H4	H	0.069700	0.432200	0.341100	0.081805
H5	H	0.940000	0.312700	0.122600	0.104825
H6	H	0.998000	0.243800	0.051200	0.104688
H7	H	0.014600	0.043200	0.140700	0.104688
H8	H	0.935800	0.117700	0.206000	0.104825
H9	H	0.818400	0.158400	0.902400	0.081805
H10	H	0.808300	0.220800	0.824500	0.149912
H11	H	0.420100	0.130200	0.763200	0.149912
H12	H	0.430300	0.067800	0.841100	0.081805
H13	H	0.560000	0.187300	0.622600	0.104825
H14	H	0.502000	0.256200	0.551200	0.104688
H15	H	0.485400	0.456800	0.640700	0.104688
H16	H	0.564200	0.382300	0.706000	0.104825
H17	H	0.318400	0.658400	0.597600	0.081805
H18	H	0.308300	0.720800	0.675500	0.149912
H19	H	0.920100	0.630200	0.736800	0.149912
H20	H	0.930300	0.567800	0.658900	0.081805
H21	H	0.060000	0.687300	0.877400	0.104825
H22	H	0.002000	0.756200	0.948800	0.104688
H23	H	0.985400	0.956800	0.859300	0.104688
H24	H	0.064200	0.882300	0.794000	0.104825
H25	H	0.181600	0.841600	0.097600	0.081805
H26	H	0.191700	0.779200	0.175500	0.149912
H27	H	0.579900	0.869800	0.236800	0.149912
H28	H	0.569700	0.932200	0.158900	0.081805
H29	H	0.440000	0.812700	0.377400	0.104825
H30	H	0.498000	0.743800	0.448800	0.104688
H31	H	0.514600	0.543200	0.359300	0.104688
H32	H	0.435800	0.617700	0.294000	0.104825
C1	C	0.559400	0.347300	0.374200	0.217309
C2	C	0.565400	0.310200	0.327900	-0.244556
C3	C	0.387000	0.318600	0.286500	0.261266
C4	C	0.202000	0.364000	0.291500	-0.244556
C5	C	0.196000	0.401100	0.337800	0.217309
C6	C	0.589000	0.300300	0.201600	0.506044
C7	C	0.620000	0.257200	0.154700	-0.126852
C8	C	0.452800	0.198500	0.149500	0.070827
C9	C	0.247000	0.184200	0.186900	-0.126852
C10	C	0.200000	0.227800	0.231900	0.506044
C11	C	0.825000	0.273600	0.118500	-0.067352
C12	C	0.859000	0.232100	0.076300	-0.062542
C13	C	0.700000	0.174100	0.069100	-0.148702
C14	C	0.499600	0.155500	0.106600	0.070889
C15	C	0.333500	0.095300	0.106200	-0.164558
C16	C	0.126800	0.082900	0.142900	-0.057956
C17	C	0.082000	0.126700	0.182000	-0.067352
C18	C	0.393300	0.037200	0.072600	0.682685
C19	C	0.749300	0.139300	0.017500	0.687849
C20	C	0.940600	0.152700	0.874200	0.217309
C21	C	0.934600	0.189800	0.827900	-0.244556
C22	C	0.113000	0.181400	0.786500	0.261266
C23	C	0.298000	0.136000	0.791500	-0.244556
C24	C	0.304000	0.098900	0.837800	0.217309
C25	C	0.911000	0.199700	0.701600	0.506044
C26	C	0.880000	0.242800	0.654700	-0.126852
C27	C	0.047200	0.301500	0.649500	0.070827
C28	C	0.253000	0.315800	0.686900	-0.126852
C29	C	0.300000	0.272200	0.731900	0.506044
C30	C	0.675000	0.226400	0.618500	-0.067352
C31	C	0.641000	0.267900	0.576300	-0.062542
C32	C	0.800000	0.325900	0.569100	-0.148702
C33	C	0.000400	0.344500	0.606600	0.070889
C34	C	0.166500	0.404700	0.606200	-0.164558
C35	C	0.373200	0.417100	0.642900	-0.057956
C36	C	0.418000	0.373300	0.682000	-0.067352
C37	C	0.106700	0.462800	0.572600	0.682685
C38	C	0.750700	0.360700	0.517500	0.687849
C39	C	0.440600	0.652700	0.625800	0.217309
C40	C	0.434600	0.689800	0.672100	-0.244556
C41	C	0.613000	0.681400	0.713500	0.261266
C42	C	0.798000	0.636000	0.708500	-0.244556
C43	C	0.804000	0.598900	0.662200	0.217309
C44	C	0.411000	0.699700	0.798400	0.506044
C45	C	0.380000	0.742800	0.845300	-0.126852
C46	C	0.547200	0.801500	0.850500	0.070827
C47	C	0.753000	0.815800	0.813100	-0.126852
C48	C	0.800000	0.772200	0.768100	0.506044
C49	C	0.175000	0.726400	0.881500	-0.067352
C50	C	0.141000	0.767900	0.923700	-0.062542
C51	C	0.300000	0.825900	0.930900	-0.148702
C52	C	0.500400	0.844500	0.893400	0.070889
C53	C	0.666500	0.904700	0.893800	-0.164558
C54	C	0.873200	0.917100	0.857100	-0.057956
C55	C	0.918000	0.873300	0.818000	-0.067352
C56	C	0.606700	0.962800	0.927400	0.682685
C57	C	0.250700	0.860700	0.982500	0.687849
C58	C	0.059400	0.847300	0.125800	0.217309
C59	C	0.065400	0.810200	0.172100	-0.244556
C60	C	0.887000	0.818600	0.213500	0.261266
C61	C	0.702000	0.864000	0.208500	-0.244556
C62	C	0.696000	0.901100	0.162200	0.217309
C63	C	0.089000	0.800300	0.298400	0.506044
C64	C	0.120000	0.757200	0.345300	-0.126852
C65	C	0.952800	0.698500	0.350500	0.070827
C66	C	0.747000	0.684200	0.313100	-0.126852
C67	C	0.700000	0.727800	0.268100	0.506044
C68	C	0.325000	0.773600	0.381500	-0.067352
C69	C	0.359000	0.732100	0.423700	-0.062542
C70	C	0.200000	0.674100	0.430900	-0.148702
C71	C	0.999600	0.655500	0.393400	0.070889
C72	C	0.833500	0.595300	0.393800	-0.164558
C73	C	0.626800	0.582900	0.357100	-0.057956
C74	C	0.582000	0.626700	0.318000	-0.067352
C75	C	0.893300	0.537200	0.427400	0.682685
C76	C	0.249300	0.639300	0.482500	0.687849
N1	N	0.374700	0.392800	0.379100	-0.333371
N2	N	0.394300	0.280800	0.237200	-0.233705
N3	N	0.125300	0.107200	0.879100	-0.333371
N4	N	0.105700	0.219200	0.737200	-0.233705
N5	N	0.625300	0.607200	0.620900	-0.333371
N6	N	0.605700	0.719200	0.762800	-0.233705
N7	N	0.874700	0.892800	0.120900	-0.333371
N8	N	0.894300	0.780800	0.262800	-0.233705
O1	O	0.214300	0.009600	0.042000	-0.629966
O2	O	0.620000	0.018700	0.079600	-0.567591
O3	O	0.552500	0.121800	0.988700	-0.596240
O4	O	0.985100	0.136300	0.006000	-0.596240
O5	O	0.734900	0.351300	0.206900	-0.450564
O6	O	0.016600	0.218000	0.263900	-0.450564
O7	O	0.285700	0.490400	0.542000	-0.629966
O8	O	0.880000	0.481300	0.579600	-0.567591
O9	O	0.947500	0.378200	0.488700	-0.596240
O10	O	0.514900	0.363700	0.506000	-0.596240
O11	O	0.765100	0.148700	0.706900	-0.450564
O12	O	0.483400	0.282000	0.763900	-0.450564
O13	O	0.785700	0.990400	0.958000	-0.629966
O14	O	0.380000	0.981300	0.920400	-0.567591
O15	O	0.447500	0.878200	0.011300	-0.596240
O16	O	0.014900	0.863700	0.994000	-0.596240
O17	O	0.265100	0.648700	0.793100	-0.450564
O18	O	0.983400	0.782000	0.736100	-0.450564
O19	O	0.714300	0.509600	0.458000	-0.629966
O20	O	0.120000	0.518700	0.420400	-0.567591
O21	O	0.052500	0.621800	0.511300	-0.596240
O22	O	0.485100	0.636300	0.494000	-0.596240
O23	O	0.234900	0.851300	0.293100	-0.450564
O24	O	0.516600	0.718000	0.236100	-0.450564
