data_XIHRIQ_clean_PM
_symmetry_space_group_name_H-M	'P1'
_cell_length_a	10.725000
_cell_length_b	13.331000
_cell_length_c	15.261400
_cell_angle_alpha	65.641002
_cell_angle_beta	86.004002
_cell_angle_gamma	74.007000
_symmetry_Int_Tables_number 1

loop_
_symmetry_equiv_pos_as_xyz
'x,y,z'

loop_
_atom_site_label
_atom_site_type_symbol
_atom_site_fract_x
_atom_site_fract_y
_atom_site_fract_z
_atom_site_charge
Co1	Co	0.128620	0.013400	0.588570	0.935567
Co2	Co	0.871380	0.986600	0.411430	0.935567
H1	H	0.211700	0.752100	0.697800	0.078321
H2	H	0.141500	0.599800	0.802000	0.123572
H3	H	0.802100	0.816100	0.801800	0.123572
H4	H	0.877900	0.966400	0.696000	0.078321
H5	H	0.970400	0.517700	0.903300	0.061810
H6	H	0.849400	0.396400	0.925800	0.119743
H7	H	0.754500	0.250700	0.031300	0.093677
H8	H	0.613500	0.283800	0.141300	0.098765
H9	H	0.436500	0.587700	0.223000	0.119743
H10	H	0.512800	0.735500	0.111000	0.093677
H11	H	0.658100	0.704000	0.004600	0.098765
H12	H	0.307300	0.470300	0.231100	0.061810
H13	H	0.460500	0.169000	0.353700	0.123572
H14	H	0.373700	0.038600	0.475500	0.078321
H15	H	0.062000	0.276900	0.465300	0.078321
H16	H	0.140700	0.413500	0.347500	0.123572
H17	H	0.509600	0.923500	0.781600	0.097923
H18	H	0.618800	0.923300	0.906000	0.102954
H19	H	0.286500	0.081900	0.982200	0.102954
H20	H	0.178100	0.080300	0.854100	0.097923
H21	H	0.447800	0.396000	0.433300	0.102954
H22	H	0.600400	0.235000	0.441200	0.097923
H23	H	0.844700	0.294000	0.585500	0.097923
H24	H	0.689400	0.457300	0.578100	0.102954
H25	H	0.788300	0.247900	0.302200	0.078321
H26	H	0.858500	0.400200	0.198000	0.123572
H27	H	0.197900	0.183900	0.198200	0.123572
H28	H	0.122100	0.033600	0.304000	0.078321
H29	H	0.029600	0.482300	0.096700	0.061810
H30	H	0.150600	0.603600	0.074200	0.119743
H31	H	0.245500	0.749300	0.968700	0.093677
H32	H	0.386500	0.716200	0.858700	0.098765
H33	H	0.563500	0.412300	0.777000	0.119743
H34	H	0.487200	0.264500	0.889000	0.093677
H35	H	0.341900	0.296000	0.995400	0.098765
H36	H	0.692700	0.529700	0.768900	0.061810
H37	H	0.539500	0.831000	0.646300	0.123572
H38	H	0.626300	0.961400	0.524500	0.078321
H39	H	0.938000	0.723100	0.534700	0.078321
H40	H	0.859300	0.586500	0.652500	0.123572
H41	H	0.490400	0.076500	0.218400	0.097923
H42	H	0.381200	0.076700	0.094000	0.102954
H43	H	0.713500	0.918100	0.017800	0.102954
H44	H	0.821900	0.919700	0.145900	0.097923
H45	H	0.552200	0.604000	0.566700	0.102954
H46	H	0.399600	0.765000	0.558800	0.097923
H47	H	0.155300	0.706000	0.414500	0.097923
H48	H	0.310600	0.542700	0.421900	0.102954
C1	C	0.127800	0.765600	0.719000	0.164802
C2	C	0.086200	0.673400	0.781600	-0.175299
C3	C	0.962100	0.690700	0.813800	0.041408
C4	C	0.886100	0.801300	0.781100	-0.175299
C5	C	0.931900	0.892100	0.717600	0.164802
C6	C	0.915700	0.591600	0.881900	0.170997
C7	C	0.755000	0.516700	0.973600	0.234576
C8	C	0.790000	0.410400	0.969500	-0.190372
C9	C	0.732800	0.321700	0.034200	-0.058964
C10	C	0.647800	0.342000	0.098900	-0.111975
C11	C	0.611100	0.447900	0.103000	-0.003494
C12	C	0.521800	0.472000	0.170700	0.234576
C13	C	0.490400	0.575500	0.175800	-0.190372
C14	C	0.539300	0.663300	0.110100	-0.058964
C15	C	0.623900	0.645100	0.045800	-0.111975
C16	C	0.662300	0.537500	0.039500	-0.003494
C17	C	0.361900	0.396800	0.261700	0.170997
C18	C	0.310200	0.307300	0.337600	0.041408
C19	C	0.379700	0.193000	0.375900	-0.175299
C20	C	0.325600	0.114900	0.448300	0.164802
C21	C	0.143200	0.254900	0.442700	0.164802
C22	C	0.189900	0.337500	0.372000	-0.175299
C23	C	0.334400	0.996900	0.805300	-0.127460
C24	C	0.462200	0.954700	0.822100	-0.037373
C25	C	0.529300	0.954800	0.897600	-0.150312
C26	C	0.465600	0.000400	0.959100	0.041188
C27	C	0.333000	0.048600	0.942700	-0.150312
C28	C	0.267200	0.047100	0.865000	-0.037373
C29	C	0.549600	0.448600	0.502400	0.041188
C30	C	0.528100	0.377100	0.464000	-0.150312
C31	C	0.619400	0.279900	0.468900	-0.037373
C32	C	0.738200	0.248500	0.514400	-0.127460
C33	C	0.764200	0.314500	0.554400	-0.037373
C34	C	0.670400	0.413600	0.549300	-0.150312
C35	C	0.264600	0.999700	0.723400	0.658425
C36	C	0.839300	0.143000	0.517800	0.658425
C37	C	0.872200	0.234400	0.281000	0.164802
C38	C	0.913800	0.326600	0.218400	-0.175299
C39	C	0.037900	0.309300	0.186200	0.041408
C40	C	0.113900	0.198700	0.218900	-0.175299
C41	C	0.068100	0.107900	0.282400	0.164802
C42	C	0.084300	0.408400	0.118100	0.170997
C43	C	0.245000	0.483300	0.026400	0.234576
C44	C	0.210000	0.589600	0.030500	-0.190372
C45	C	0.267200	0.678300	0.965800	-0.058964
C46	C	0.352200	0.658000	0.901100	-0.111975
C47	C	0.388900	0.552100	0.897000	-0.003494
C48	C	0.478200	0.528000	0.829300	0.234576
C49	C	0.509600	0.424500	0.824200	-0.190372
C50	C	0.460700	0.336700	0.889900	-0.058964
C51	C	0.376100	0.354900	0.954200	-0.111975
C52	C	0.337700	0.462500	0.960500	-0.003494
C53	C	0.638100	0.603200	0.738300	0.170997
C54	C	0.689800	0.692700	0.662400	0.041408
C55	C	0.620300	0.807000	0.624100	-0.175299
C56	C	0.674400	0.885100	0.551700	0.164802
C57	C	0.856800	0.745100	0.557300	0.164802
C58	C	0.810100	0.662500	0.628000	-0.175299
C59	C	0.665600	0.003100	0.194700	-0.127460
C60	C	0.537800	0.045300	0.177900	-0.037373
C61	C	0.470700	0.045200	0.102400	-0.150312
C62	C	0.534400	0.999600	0.040900	0.041188
C63	C	0.667000	0.951400	0.057300	-0.150312
C64	C	0.732800	0.952900	0.135000	-0.037373
C65	C	0.450400	0.551400	0.497600	0.041188
C66	C	0.471900	0.622900	0.536000	-0.150312
C67	C	0.380600	0.720100	0.531100	-0.037373
C68	C	0.261800	0.751500	0.485600	-0.127460
C69	C	0.235800	0.685500	0.445600	-0.037373
C70	C	0.329600	0.586400	0.450700	-0.150312
C71	C	0.735400	0.000300	0.276600	0.658425
C72	C	0.160700	0.857000	0.482200	0.658425
N1	N	0.053600	0.873600	0.687100	-0.331379
N2	N	0.799400	0.609600	0.910400	-0.420262
N3	N	0.478100	0.375500	0.237800	-0.420262
N4	N	0.208800	0.143700	0.480800	-0.331379
N5	N	0.946400	0.126400	0.312900	-0.331379
N6	N	0.200600	0.390400	0.089600	-0.420262
N7	N	0.521900	0.624500	0.762200	-0.420262
N8	N	0.791200	0.856300	0.519200	-0.331379
O1	O	0.315400	0.946100	0.676800	-0.576821
O2	O	0.146500	0.059600	0.704100	-0.576821
O3	O	0.951400	0.127400	0.549100	-0.576821
O4	O	0.804900	0.079400	0.488200	-0.576821
O5	O	0.684600	0.053900	0.323200	-0.576821
O6	O	0.853500	0.940400	0.295900	-0.576821
O7	O	0.048600	0.872600	0.450900	-0.576821
O8	O	0.195100	0.920600	0.511800	-0.576821
