data_XIPTIA_clean_PM
_symmetry_space_group_name_H-M	'P1'
_cell_length_a	7.621600
_cell_length_b	9.833000
_cell_length_c	14.762000
_cell_angle_alpha	90.000000
_cell_angle_beta	98.191002
_cell_angle_gamma	90.000000
_symmetry_Int_Tables_number 1

loop_
_symmetry_equiv_pos_as_xyz
'x,y,z'

loop_
_atom_site_label
_atom_site_type_symbol
_atom_site_fract_x
_atom_site_fract_y
_atom_site_fract_z
_atom_site_charge
Dy1	Dy	0.649430	0.545070	0.360890	2.264786
Dy2	Dy	0.850570	0.045070	0.139110	2.264786
Dy3	Dy	0.350570	0.454930	0.639110	2.264786
Dy4	Dy	0.149430	0.954930	0.860890	2.264786
H1	H	0.799400	0.610300	0.862200	0.073853
H2	H	0.827100	0.614100	0.135700	0.104488
H3	H	0.616600	0.301100	0.984500	0.073853
H4	H	0.700600	0.110300	0.637800	0.073853
H5	H	0.672900	0.114100	0.364300	0.104488
H6	H	0.883400	0.801100	0.515500	0.073853
H7	H	0.200600	0.389700	0.137800	0.073853
H8	H	0.172900	0.385900	0.864300	0.104488
H9	H	0.383400	0.698900	0.015500	0.073853
H10	H	0.299400	0.889700	0.362200	0.073853
H11	H	0.327100	0.885900	0.635700	0.104488
H12	H	0.116600	0.198900	0.484500	0.073853
C1	C	0.775400	0.569100	0.915800	0.244429
C2	C	0.827100	0.635600	0.999300	-0.248715
C3	C	0.797000	0.571500	0.079400	0.107127
C4	C	0.720400	0.441500	0.074100	-0.248715
C5	C	0.669800	0.386400	0.988300	0.244429
C6	C	0.912300	0.773100	0.000700	0.827705
C7	C	0.693200	0.362400	0.157600	0.827705
C8	C	0.457200	0.969200	0.039000	0.564218
C9	C	0.724600	0.069100	0.584200	0.244429
C10	C	0.672900	0.135600	0.500700	-0.248715
C11	C	0.703000	0.071500	0.420600	0.107127
C12	C	0.779600	0.941500	0.425900	-0.248715
C13	C	0.830200	0.886400	0.511700	0.244429
C14	C	0.587700	0.273100	0.499300	0.827705
C15	C	0.806800	0.862400	0.342400	0.827705
C16	C	0.042800	0.469200	0.461000	0.564218
C17	C	0.224600	0.430900	0.084200	0.244429
C18	C	0.172900	0.364400	0.000700	-0.248715
C19	C	0.203000	0.428500	0.920600	0.107127
C20	C	0.279600	0.558500	0.925900	-0.248715
C21	C	0.330200	0.613600	0.011700	0.244429
C22	C	0.087700	0.226900	0.999300	0.827705
C23	C	0.306800	0.637600	0.842400	0.827705
C24	C	0.542800	0.030800	0.961000	0.564218
C25	C	0.275400	0.930900	0.415800	0.244429
C26	C	0.327100	0.864400	0.499300	-0.248715
C27	C	0.297000	0.928500	0.579400	0.107127
C28	C	0.220400	0.058500	0.574100	-0.248715
C29	C	0.169800	0.113600	0.488300	0.244429
C30	C	0.412300	0.726900	0.500700	0.827705
C31	C	0.193200	0.137600	0.657600	0.827705
C32	C	0.957200	0.530800	0.539000	0.564218
N1	N	0.693100	0.448900	0.910400	-0.415132
N2	N	0.806900	0.948900	0.589600	-0.415132
N3	N	0.306900	0.551100	0.089600	-0.415132
N4	N	0.193100	0.051100	0.410400	-0.415132
O1	O	0.980500	0.808300	0.932200	-0.766431
O2	O	0.906600	0.843800	0.070700	-0.766431
O3	O	0.695800	0.421900	0.231900	-0.766431
O4	O	0.666800	0.235300	0.147300	-0.766431
O5	O	0.553100	0.952900	0.115000	-0.677154
O6	O	0.295700	0.937200	0.020400	-0.677154
O7	O	0.519500	0.308300	0.567800	-0.766431
O8	O	0.593400	0.343800	0.429300	-0.766431
O9	O	0.804200	0.921900	0.268100	-0.766431
O10	O	0.833200	0.735300	0.352700	-0.766431
O11	O	0.946900	0.452900	0.385000	-0.677154
O12	O	0.204300	0.437200	0.479600	-0.677154
O13	O	0.019500	0.191700	0.067800	-0.766431
O14	O	0.093400	0.156200	0.929300	-0.766431
O15	O	0.304200	0.578100	0.768100	-0.766431
O16	O	0.333200	0.764700	0.852700	-0.766431
O17	O	0.446900	0.047100	0.885000	-0.677154
O18	O	0.704300	0.062800	0.979600	-0.677154
O19	O	0.480500	0.691700	0.432200	-0.766431
O20	O	0.406600	0.656200	0.570700	-0.766431
O21	O	0.195800	0.078100	0.731900	-0.766431
O22	O	0.166800	0.264700	0.647300	-0.766431
O23	O	0.053100	0.547100	0.615000	-0.677154
O24	O	0.795700	0.562800	0.520400	-0.677154
