data_YACHOB_clean_PM
_symmetry_space_group_name_H-M	'P1'
_cell_length_a	10.110800
_cell_length_b	10.811000
_cell_length_c	13.740900
_cell_angle_alpha	79.139002
_cell_angle_beta	78.744998
_cell_angle_gamma	86.219001
_symmetry_Int_Tables_number 1

loop_
_symmetry_equiv_pos_as_xyz
'x,y,z'

loop_
_atom_site_label
_atom_site_type_symbol
_atom_site_fract_x
_atom_site_fract_y
_atom_site_fract_z
_atom_site_charge
Dy1	Dy	0.181890	0.077450	0.203230	2.272069
Dy2	Dy	0.818110	0.922550	0.796770	2.272069
Co1	Co	0.500000	0.500000	0.000000	0.885001
H1	H	0.172500	0.329700	0.346600	0.124601
H2	H	0.153400	0.671700	0.424000	0.124601
H3	H	0.217900	0.640600	0.131800	0.104166
H4	H	0.144300	0.545500	0.758000	0.123009
H5	H	0.134500	0.427700	0.915700	0.064318
H6	H	0.145000	0.118300	0.811200	0.064318
H7	H	0.154800	0.225200	0.649800	0.123009
H8	H	0.806100	0.146900	0.462500	0.124601
H9	H	0.410900	0.160000	0.459700	0.124601
H10	H	0.676300	0.086500	0.217700	0.104166
H11	H	0.491200	0.522700	0.629900	0.128798
H12	H	0.487700	0.592900	0.777500	0.085910
H13	H	0.466600	0.250900	0.929300	0.085910
H14	H	0.480800	0.169600	0.784500	0.128798
H15	H	0.120900	0.353600	0.518400	0.289815
H16	H	0.618800	0.157100	0.618400	0.289815
H17	H	0.827500	0.670300	0.653400	0.124601
H18	H	0.846600	0.328300	0.576000	0.124601
H19	H	0.782100	0.359400	0.868200	0.104166
H20	H	0.855700	0.454500	0.242000	0.123009
H21	H	0.865500	0.572300	0.084300	0.064318
H22	H	0.855000	0.881700	0.188800	0.064318
H23	H	0.845200	0.774800	0.350200	0.123009
H24	H	0.193900	0.853100	0.537500	0.124601
H25	H	0.589100	0.840000	0.540300	0.124601
H26	H	0.323700	0.913500	0.782300	0.104166
H27	H	0.508800	0.477300	0.370100	0.128798
H28	H	0.512300	0.407100	0.222500	0.085910
H29	H	0.533400	0.749100	0.070700	0.085910
H30	H	0.519200	0.830400	0.215500	0.128798
H31	H	0.879100	0.646400	0.481600	0.289815
H32	H	0.381200	0.842900	0.381600	0.289815
C1	C	0.200800	0.472700	0.227000	-0.122312
C2	C	0.178000	0.416800	0.328500	-0.117360
C3	C	0.163500	0.490100	0.403000	0.182786
C4	C	0.165000	0.621300	0.374900	-0.107889
C5	C	0.183700	0.675300	0.274500	-0.130081
C6	C	0.203300	0.602700	0.199500	0.005686
C7	C	0.187200	0.814600	0.247200	0.761147
C8	C	0.232400	0.392900	0.146600	0.736540
C9	C	0.165200	0.482700	0.581900	0.497335
C10	C	0.151700	0.399700	0.684400	-0.025840
C11	C	0.145000	0.458100	0.766700	-0.164425
C12	C	0.139200	0.386500	0.861500	0.188097
C13	C	0.145300	0.205900	0.799900	0.188097
C14	C	0.151200	0.269100	0.702400	-0.164425
C15	C	0.763400	0.113600	0.331600	-0.130081
C16	C	0.735600	0.141600	0.429000	-0.107889
C17	C	0.604700	0.161300	0.475500	0.182786
C18	C	0.499600	0.148900	0.427600	-0.107889
C19	C	0.526600	0.119700	0.331000	-0.130081
C20	C	0.658400	0.103800	0.282800	0.013575
C21	C	0.908600	0.098300	0.283500	0.761147
C22	C	0.408800	0.108700	0.282700	0.761147
C23	C	0.495800	0.294500	0.591300	0.497335
C24	C	0.490200	0.338200	0.690400	0.002675
C25	C	0.489300	0.465300	0.689800	-0.139840
C26	C	0.485600	0.506700	0.779100	0.165694
C27	C	0.474700	0.306100	0.867900	0.165694
C28	C	0.481700	0.256200	0.781400	-0.139840
C29	C	0.799200	0.527300	0.773000	-0.122312
C30	C	0.822000	0.583200	0.671500	-0.117360
C31	C	0.836500	0.509900	0.597000	0.182786
C32	C	0.835000	0.378700	0.625100	-0.107889
C33	C	0.816300	0.324700	0.725500	-0.130081
C34	C	0.796700	0.397300	0.800500	0.005686
C35	C	0.812800	0.185400	0.752800	0.761147
C36	C	0.767600	0.607100	0.853400	0.736540
C37	C	0.834800	0.517300	0.418100	0.497335
C38	C	0.848300	0.600300	0.315600	-0.025840
C39	C	0.855000	0.541900	0.233300	-0.164425
C40	C	0.860800	0.613500	0.138500	0.188097
C41	C	0.854700	0.794100	0.200100	0.188097
C42	C	0.848800	0.730900	0.297600	-0.164425
C43	C	0.236600	0.886400	0.668400	-0.130081
C44	C	0.264400	0.858400	0.571000	-0.107889
C45	C	0.395300	0.838700	0.524500	0.182786
C46	C	0.500400	0.851100	0.572400	-0.107889
C47	C	0.473400	0.880300	0.669000	-0.130081
C48	C	0.341600	0.896200	0.717200	0.013575
C49	C	0.091400	0.901700	0.716500	0.761147
C50	C	0.591200	0.891300	0.717300	0.761147
C51	C	0.504200	0.705500	0.408700	0.497335
C52	C	0.509800	0.661800	0.309600	0.002675
C53	C	0.510700	0.534700	0.310200	-0.139840
C54	C	0.514400	0.493300	0.220900	0.165694
C55	C	0.525300	0.693900	0.132100	0.165694
C56	C	0.518300	0.743800	0.218600	-0.139840
N1	N	0.146100	0.430400	0.504500	-0.404379
N2	N	0.140000	0.261700	0.879100	-0.417475
N3	N	0.579200	0.198200	0.571600	-0.404379
N4	N	0.479000	0.429100	0.867900	-0.347787
N5	N	0.853900	0.569600	0.495500	-0.404379
N6	N	0.860000	0.738300	0.120900	-0.417475
N7	N	0.420800	0.801800	0.428400	-0.404379
N8	N	0.521000	0.570900	0.132100	-0.347787
O1	O	0.306900	0.435100	0.065100	-0.584942
O2	O	0.180100	0.286500	0.165400	-0.749302
O3	O	0.170800	0.871700	0.161800	-0.744108
O4	O	0.207200	0.878200	0.310700	-0.744108
O5	O	0.192100	0.591800	0.574400	-0.476943
O6	O	0.942700	0.098800	0.190600	-0.744108
O7	O	0.997600	0.084200	0.336400	-0.744108
O8	O	0.426500	0.093300	0.190800	-0.744108
O9	O	0.291700	0.115100	0.332200	-0.744108
O10	O	0.424000	0.351100	0.533100	-0.476943
O11	O	0.693100	0.564900	0.934900	-0.584942
O12	O	0.819900	0.713500	0.834600	-0.749302
O13	O	0.829200	0.128300	0.838200	-0.744108
O14	O	0.792800	0.121800	0.689300	-0.744108
O15	O	0.807900	0.408200	0.425600	-0.476943
O16	O	0.057300	0.901200	0.809400	-0.744108
O17	O	0.002400	0.915800	0.663600	-0.744108
O18	O	0.573500	0.906700	0.809200	-0.744108
O19	O	0.708300	0.884900	0.667800	-0.744108
O20	O	0.576000	0.648900	0.466900	-0.476943
