data_YADMIB_clean_PM
_symmetry_space_group_name_H-M	'P1'
_cell_length_a	10.081600
_cell_length_b	10.784400
_cell_length_c	13.731600
_cell_angle_alpha	79.174000
_cell_angle_beta	78.771002
_cell_angle_gamma	86.354998
_symmetry_Int_Tables_number 1

loop_
_symmetry_equiv_pos_as_xyz
'x,y,z'

loop_
_atom_site_label
_atom_site_type_symbol
_atom_site_fract_x
_atom_site_fract_y
_atom_site_fract_z
_atom_site_charge
Er1	Er	0.181760	0.077760	0.203740	1.397158
Er2	Er	0.818240	0.922240	0.796260	1.397158
Co1	Co	0.500000	0.500000	0.000000	0.890780
H1	H	0.171200	0.329300	0.347200	0.127300
H2	H	0.154300	0.673400	0.423800	0.127300
H3	H	0.219700	0.640600	0.131800	0.106873
H4	H	0.141600	0.547400	0.759400	0.125670
H5	H	0.133800	0.430200	0.915700	0.068011
H6	H	0.144200	0.118400	0.811200	0.068011
H7	H	0.154300	0.227000	0.650900	0.125670
H8	H	0.805400	0.147300	0.462500	0.127300
H9	H	0.410400	0.158000	0.458700	0.127300
H10	H	0.676300	0.085300	0.216500	0.106873
H11	H	0.492300	0.521700	0.629100	0.131442
H12	H	0.485000	0.593200	0.777500	0.088933
H13	H	0.464600	0.250300	0.929700	0.088933
H14	H	0.483300	0.167000	0.784900	0.131442
H15	H	0.119900	0.353700	0.518100	0.292536
H16	H	0.616900	0.154000	0.619400	0.292536
H17	H	0.828800	0.670700	0.652800	0.127300
H18	H	0.845700	0.326600	0.576200	0.127300
H19	H	0.780300	0.359400	0.868200	0.106873
H20	H	0.858400	0.452600	0.240600	0.125670
H21	H	0.866200	0.569800	0.084300	0.068011
H22	H	0.855800	0.881600	0.188800	0.068011
H23	H	0.845700	0.773000	0.349100	0.125670
H24	H	0.194600	0.852700	0.537500	0.127300
H25	H	0.589600	0.842000	0.541300	0.127300
H26	H	0.323700	0.914700	0.783500	0.106873
H27	H	0.507700	0.478300	0.370900	0.131442
H28	H	0.515000	0.406800	0.222500	0.088933
H29	H	0.535400	0.749700	0.070300	0.088933
H30	H	0.516700	0.833000	0.215100	0.131442
H31	H	0.880100	0.646300	0.481900	0.292536
H32	H	0.383100	0.846000	0.380600	0.292536
C1	C	0.201000	0.472600	0.227700	-0.106732
C2	C	0.177700	0.416500	0.329100	-0.123268
C3	C	0.164000	0.490900	0.404100	0.186649
C4	C	0.165500	0.622300	0.375100	-0.119876
C5	C	0.183300	0.675700	0.275000	-0.106782
C6	C	0.204100	0.602800	0.199600	-0.016745
C7	C	0.186900	0.816300	0.248200	0.673080
C8	C	0.231800	0.392600	0.147400	0.677963
C9	C	0.165100	0.483100	0.583000	0.499306
C10	C	0.150600	0.400000	0.685800	-0.021202
C11	C	0.143200	0.459700	0.768200	-0.156335
C12	C	0.138500	0.388400	0.861700	0.190992
C13	C	0.144800	0.206100	0.800400	0.190992
C14	C	0.150500	0.270600	0.703700	-0.156335
C15	C	0.764000	0.112900	0.331000	-0.106782
C16	C	0.735100	0.141400	0.428900	-0.119876
C17	C	0.605700	0.160300	0.474300	0.186649
C18	C	0.499400	0.147900	0.426200	-0.119876
C19	C	0.526200	0.120400	0.330200	-0.106782
C20	C	0.658600	0.103200	0.281500	-0.015087
C21	C	0.909200	0.098100	0.283000	0.673080
C22	C	0.407300	0.108400	0.282300	0.673080
C23	C	0.494200	0.293500	0.590200	0.499306
C24	C	0.490600	0.336400	0.690000	0.007121
C25	C	0.489600	0.464500	0.689200	-0.133823
C26	C	0.484500	0.506700	0.778900	0.171516
C27	C	0.474200	0.305100	0.867900	0.171516
C28	C	0.482800	0.254000	0.781600	-0.133823
C29	C	0.799000	0.527400	0.772300	-0.106732
C30	C	0.822300	0.583500	0.670900	-0.123268
C31	C	0.836000	0.509100	0.595900	0.186649
C32	C	0.834500	0.377700	0.624900	-0.119876
C33	C	0.816700	0.324300	0.725000	-0.106782
C34	C	0.795900	0.397200	0.800400	-0.016745
C35	C	0.813100	0.183700	0.751800	0.673080
C36	C	0.768200	0.607400	0.852600	0.677963
C37	C	0.834900	0.516900	0.417000	0.499306
C38	C	0.849400	0.600000	0.314200	-0.021202
C39	C	0.856800	0.540300	0.231800	-0.156335
C40	C	0.861500	0.611600	0.138300	0.190992
C41	C	0.855200	0.793900	0.199600	0.190992
C42	C	0.849500	0.729400	0.296300	-0.156335
C43	C	0.236000	0.887100	0.669000	-0.106782
C44	C	0.264900	0.858600	0.571100	-0.119876
C45	C	0.394300	0.839700	0.525700	0.186649
C46	C	0.500600	0.852100	0.573800	-0.119876
C47	C	0.473800	0.879600	0.669800	-0.106782
C48	C	0.341400	0.896800	0.718500	-0.015087
C49	C	0.090800	0.901900	0.717000	0.673080
C50	C	0.592700	0.891600	0.717700	0.673080
C51	C	0.505800	0.706500	0.409800	0.499306
C52	C	0.509400	0.663600	0.310000	0.007121
C53	C	0.510400	0.535500	0.310800	-0.133823
C54	C	0.515500	0.493300	0.221100	0.171516
C55	C	0.525800	0.694900	0.132100	0.171516
C56	C	0.517200	0.746000	0.218400	-0.133823
N1	N	0.145700	0.430600	0.504600	-0.398984
N2	N	0.140000	0.262400	0.880900	-0.405196
N3	N	0.578700	0.195700	0.572000	-0.398984
N4	N	0.478800	0.429000	0.867700	-0.342295
N5	N	0.854300	0.569400	0.495400	-0.398984
N6	N	0.860000	0.737600	0.119100	-0.405196
N7	N	0.421300	0.804300	0.428000	-0.398984
N8	N	0.521200	0.571000	0.132300	-0.342295
O1	O	0.305900	0.434400	0.065400	-0.579371
O2	O	0.179300	0.285300	0.166500	-0.594903
O3	O	0.170300	0.872900	0.162100	-0.597455
O4	O	0.207500	0.880000	0.310200	-0.597455
O5	O	0.192600	0.593000	0.574900	-0.466071
O6	O	0.943900	0.098500	0.189200	-0.597455
O7	O	0.998400	0.084100	0.335600	-0.597455
O8	O	0.424200	0.092100	0.191000	-0.597455
O9	O	0.290500	0.115600	0.331400	-0.597455
O10	O	0.424800	0.350300	0.533200	-0.466071
O11	O	0.694100	0.565600	0.934600	-0.579371
O12	O	0.820700	0.714700	0.833500	-0.594903
O13	O	0.829700	0.127100	0.837900	-0.597455
O14	O	0.792500	0.120000	0.689800	-0.597455
O15	O	0.807400	0.407000	0.425100	-0.466071
O16	O	0.056100	0.901500	0.810800	-0.597455
O17	O	0.001600	0.915900	0.664400	-0.597455
O18	O	0.575800	0.907900	0.809000	-0.597455
O19	O	0.709500	0.884400	0.668600	-0.597455
O20	O	0.575200	0.649700	0.466800	-0.466071
