data_YAQDIF_clean_PM
_symmetry_space_group_name_H-M	'P1'
_cell_length_a	16.782400
_cell_length_b	17.131300
_cell_length_c	17.131300
_cell_angle_alpha	76.118101
_cell_angle_beta	60.671399
_cell_angle_gamma	60.671401
_symmetry_Int_Tables_number 1

loop_
_symmetry_equiv_pos_as_xyz
'x,y,z'

loop_
_atom_site_label
_atom_site_type_symbol
_atom_site_fract_x
_atom_site_fract_y
_atom_site_fract_z
_atom_site_charge
Cd1	Cd	0.625000	0.250000	0.250000	1.084255
Cd2	Cd	0.375000	0.750000	0.750000	1.084255
Cd3	Cd	0.875000	0.750000	0.750000	1.084255
Cd4	Cd	0.125000	0.250000	0.250000	1.084255
H1	H	0.638100	0.994900	0.273700	0.116290
H2	H	0.671400	0.862800	0.229200	0.111940
H3	H	0.626300	0.759500	0.331700	0.111940
H4	H	0.534200	0.791600	0.480000	0.116290
H5	H	0.406700	0.505100	0.226300	0.116290
H6	H	0.263400	0.637200	0.270800	0.111940
H7	H	0.217500	0.740500	0.168300	0.111940
H8	H	0.305800	0.708400	0.020000	0.116290
H9	H	0.411800	0.726300	0.494900	0.116290
H10	H	0.400600	0.770800	0.362800	0.111940
H11	H	0.458000	0.668300	0.259500	0.111940
H12	H	0.514200	0.520000	0.291600	0.116290
H13	H	0.133000	0.773700	0.005100	0.116290
H14	H	0.034200	0.729200	0.137200	0.111940
H15	H	0.885800	0.831700	0.240500	0.111940
H16	H	0.825800	0.980000	0.208400	0.116290
H17	H	0.361900	0.005100	0.726300	0.116290
H18	H	0.328600	0.137200	0.770800	0.111940
H19	H	0.373700	0.240500	0.668300	0.111940
H20	H	0.465800	0.208400	0.520000	0.116290
H21	H	0.593300	0.494900	0.773700	0.116290
H22	H	0.736600	0.362800	0.729200	0.111940
H23	H	0.782500	0.259500	0.831700	0.111940
H24	H	0.694200	0.291600	0.980000	0.116290
H25	H	0.588200	0.273700	0.505100	0.116290
H26	H	0.599400	0.229200	0.637200	0.111940
H27	H	0.542000	0.331700	0.740500	0.111940
H28	H	0.485800	0.480000	0.708400	0.116290
H29	H	0.867000	0.226300	0.994900	0.116290
H30	H	0.965800	0.270800	0.862800	0.111940
H31	H	0.114200	0.168300	0.759500	0.111940
H32	H	0.174200	0.020000	0.791600	0.116290
H33	H	0.093300	0.773700	0.494900	0.116290
H34	H	0.236600	0.729200	0.362800	0.111940
H35	H	0.282500	0.831700	0.259500	0.111940
H36	H	0.194200	0.980000	0.291600	0.116290
H37	H	0.861900	0.726300	0.005100	0.116290
H38	H	0.828600	0.770800	0.137200	0.111940
H39	H	0.873700	0.668300	0.240500	0.111940
H40	H	0.965800	0.520000	0.208400	0.116290
H41	H	0.367000	0.994900	0.226300	0.116290
H42	H	0.465800	0.862800	0.270800	0.111940
H43	H	0.614200	0.759500	0.168300	0.111940
H44	H	0.674200	0.791600	0.020000	0.116290
H45	H	0.088200	0.505100	0.273700	0.116290
H46	H	0.099400	0.637200	0.229200	0.111940
H47	H	0.042000	0.740500	0.331700	0.111940
H48	H	0.985800	0.708400	0.480000	0.116290
H49	H	0.906700	0.226300	0.505100	0.116290
H50	H	0.763400	0.270800	0.637200	0.111940
H51	H	0.717500	0.168300	0.740500	0.111940
H52	H	0.805800	0.020000	0.708400	0.116290
H53	H	0.138100	0.273700	0.994900	0.116290
H54	H	0.171400	0.229200	0.862800	0.111940
H55	H	0.126300	0.331700	0.759500	0.111940
H56	H	0.034200	0.480000	0.791600	0.116290
H57	H	0.633000	0.005100	0.773700	0.116290
H58	H	0.534200	0.137200	0.729200	0.111940
H59	H	0.385800	0.240500	0.831700	0.111940
H60	H	0.325800	0.208400	0.980000	0.116290
H61	H	0.911800	0.494900	0.726300	0.116290
H62	H	0.900600	0.362800	0.770800	0.111940
H63	H	0.958000	0.259500	0.668300	0.111940
H64	H	0.014200	0.291600	0.520000	0.116290
C1	C	0.568450	0.126420	0.370280	0.634878
C2	C	0.532120	0.061510	0.438250	-0.131173
C3	C	0.557820	0.980360	0.408200	0.069418
C4	C	0.615140	0.956130	0.316190	-0.099718
C5	C	0.636600	0.876300	0.289900	-0.054763
C6	C	0.607750	0.814450	0.351650	-0.054763
C7	C	0.553660	0.833290	0.439590	-0.099718
C8	C	0.473990	0.083390	0.529030	0.069418
C9	C	0.565150	0.373580	0.129720	0.634878
C10	C	0.531880	0.438490	0.061750	-0.131173
C11	C	0.446380	0.519640	0.091800	0.069418
C12	C	0.387460	0.543870	0.183810	-0.099718
C13	C	0.302800	0.623700	0.210100	-0.054763
C14	C	0.273850	0.685550	0.148350	-0.054763
C15	C	0.326540	0.666710	0.060410	-0.099718
C16	C	0.586410	0.416610	0.970970	0.069418
C17	C	0.438730	0.629720	0.626420	0.634878
C18	C	0.470370	0.561750	0.561510	-0.131173
C19	C	0.466020	0.591800	0.480360	0.069418
C20	C	0.431330	0.683810	0.456130	-0.099718
C21	C	0.426500	0.710100	0.376300	-0.054763
C22	C	0.459400	0.648350	0.314450	-0.054763
C23	C	0.493250	0.560410	0.333290	-0.099718
C24	C	0.503020	0.470970	0.583390	0.069418
C25	C	0.194870	0.870280	0.873580	0.634878
C26	C	0.093630	0.938250	0.938490	-0.131173
C27	C	0.038180	0.908200	0.019640	0.069418
C28	C	0.071270	0.816190	0.043870	-0.099718
C29	C	0.012900	0.789900	0.123700	-0.054763
C30	C	0.922200	0.851650	0.185550	-0.054763
C31	C	0.886950	0.939590	0.166710	-0.099718
C32	C	0.057380	0.029030	0.916610	0.069418
C33	C	0.431550	0.873580	0.629720	0.634878
C34	C	0.467880	0.938490	0.561750	-0.131173
C35	C	0.442180	0.019640	0.591800	0.069418
C36	C	0.384860	0.043870	0.683810	-0.099718
C37	C	0.363400	0.123700	0.710100	-0.054763
C38	C	0.392250	0.185550	0.648350	-0.054763
C39	C	0.446340	0.166710	0.560410	-0.099718
C40	C	0.526010	0.916610	0.470970	0.069418
C41	C	0.434850	0.626420	0.870280	0.634878
C42	C	0.468120	0.561510	0.938250	-0.131173
C43	C	0.553620	0.480360	0.908200	0.069418
C44	C	0.612540	0.456130	0.816190	-0.099718
C45	C	0.697200	0.376300	0.789900	-0.054763
C46	C	0.726150	0.314450	0.851650	-0.054763
C47	C	0.673460	0.333290	0.939590	-0.099718
C48	C	0.413590	0.583390	0.029030	0.069418
C49	C	0.561270	0.370280	0.373580	0.634878
C50	C	0.529630	0.438250	0.438490	-0.131173
C51	C	0.533980	0.408200	0.519640	0.069418
C52	C	0.568670	0.316190	0.543870	-0.099718
C53	C	0.573500	0.289900	0.623700	-0.054763
C54	C	0.540600	0.351650	0.685550	-0.054763
C55	C	0.506750	0.439590	0.666710	-0.099718
C56	C	0.496980	0.529030	0.416610	0.069418
C57	C	0.805130	0.129720	0.126420	0.634878
C58	C	0.906370	0.061750	0.061510	-0.131173
C59	C	0.961820	0.091800	0.980360	0.069418
C60	C	0.928730	0.183810	0.956130	-0.099718
C61	C	0.987100	0.210100	0.876300	-0.054763
C62	C	0.077800	0.148350	0.814450	-0.054763
C63	C	0.113050	0.060410	0.833290	-0.099718
C64	C	0.942620	0.970970	0.083390	0.069418
C65	C	0.934850	0.870280	0.626420	0.634878
C66	C	0.968120	0.938250	0.561510	-0.131173
C67	C	0.053620	0.908200	0.480360	0.069418
C68	C	0.112540	0.816190	0.456130	-0.099718
C69	C	0.197200	0.789900	0.376300	-0.054763
C70	C	0.226150	0.851650	0.314450	-0.054763
C71	C	0.173460	0.939590	0.333290	-0.099718
C72	C	0.913590	0.029030	0.583390	0.069418
C73	C	0.931550	0.629720	0.873580	0.634878
C74	C	0.967880	0.561750	0.938490	-0.131173
C75	C	0.942180	0.591800	0.019640	0.069418
C76	C	0.884860	0.683810	0.043870	-0.099718
C77	C	0.863400	0.710100	0.123700	-0.054763
C78	C	0.892250	0.648350	0.185550	-0.054763
C79	C	0.946340	0.560410	0.166710	-0.099718
C80	C	0.026010	0.470970	0.916610	0.069418
C81	C	0.305130	0.126420	0.129720	0.634878
C82	C	0.406370	0.061510	0.061750	-0.131173
C83	C	0.461820	0.980360	0.091800	0.069418
C84	C	0.428730	0.956130	0.183810	-0.099718
C85	C	0.487100	0.876300	0.210100	-0.054763
C86	C	0.577800	0.814450	0.148350	-0.054763
C87	C	0.613050	0.833290	0.060410	-0.099718
C88	C	0.442620	0.083390	0.970970	0.069418
C89	C	0.061270	0.373580	0.370280	0.634878
C90	C	0.029630	0.438490	0.438250	-0.131173
C91	C	0.033980	0.519640	0.408200	0.069418
C92	C	0.068670	0.543870	0.316190	-0.099718
C93	C	0.073500	0.623700	0.289900	-0.054763
C94	C	0.040600	0.685550	0.351650	-0.054763
C95	C	0.006750	0.666710	0.439590	-0.099718
C96	C	0.996980	0.416610	0.529030	0.069418
C97	C	0.065150	0.129720	0.373580	0.634878
C98	C	0.031880	0.061750	0.438490	-0.131173
C99	C	0.946380	0.091800	0.519640	0.069418
C100	C	0.887460	0.183810	0.543870	-0.099718
C101	C	0.802800	0.210100	0.623700	-0.054763
C102	C	0.773850	0.148350	0.685550	-0.054763
C103	C	0.826540	0.060410	0.666710	-0.099718
C104	C	0.086410	0.970970	0.416610	0.069418
C105	C	0.068450	0.370280	0.126420	0.634878
C106	C	0.032120	0.438250	0.061510	-0.131173
C107	C	0.057820	0.408200	0.980360	0.069418
C108	C	0.115140	0.316190	0.956130	-0.099718
C109	C	0.136600	0.289900	0.876300	-0.054763
C110	C	0.107750	0.351650	0.814450	-0.054763
C111	C	0.053660	0.439590	0.833290	-0.099718
C112	C	0.973990	0.529030	0.083390	0.069418
C113	C	0.694870	0.873580	0.870280	0.634878
C114	C	0.593630	0.938490	0.938250	-0.131173
C115	C	0.538180	0.019640	0.908200	0.069418
C116	C	0.571270	0.043870	0.816190	-0.099718
C117	C	0.512900	0.123700	0.789900	-0.054763
C118	C	0.422200	0.185550	0.851650	-0.054763
C119	C	0.386950	0.166710	0.939590	-0.099718
C120	C	0.557380	0.916610	0.029030	0.069418
C121	C	0.938730	0.626420	0.629720	0.634878
C122	C	0.970370	0.561510	0.561750	-0.131173
C123	C	0.966020	0.480360	0.591800	0.069418
C124	C	0.931330	0.456130	0.683810	-0.099718
C125	C	0.926500	0.376300	0.710100	-0.054763
C126	C	0.959400	0.314450	0.648350	-0.054763
C127	C	0.993250	0.333290	0.560410	-0.099718
C128	C	0.003020	0.583390	0.470970	0.069418
O1	O	0.643980	0.130170	0.361170	-0.530551
O2	O	0.518220	0.175260	0.327600	-0.530551
O3	O	0.635320	0.369830	0.138830	-0.530551
O4	O	0.521080	0.324740	0.172400	-0.530551
O5	O	0.505150	0.638830	0.630170	-0.530551
O6	O	0.345820	0.672400	0.675260	-0.530551
O7	O	0.274150	0.861170	0.869830	-0.530551
O8	O	0.193480	0.827600	0.824740	-0.530551
O9	O	0.356020	0.869830	0.638830	-0.530551
O10	O	0.481780	0.824740	0.672400	-0.530551
O11	O	0.364680	0.630170	0.861170	-0.530551
O12	O	0.478920	0.675260	0.827600	-0.530551
O13	O	0.494850	0.361170	0.369830	-0.530551
O14	O	0.654180	0.327600	0.324740	-0.530551
O15	O	0.725850	0.138830	0.130170	-0.530551
O16	O	0.806520	0.172400	0.175260	-0.530551
O17	O	0.864680	0.861170	0.630170	-0.530551
O18	O	0.978920	0.827600	0.675260	-0.530551
O19	O	0.856020	0.638830	0.869830	-0.530551
O20	O	0.981780	0.672400	0.824740	-0.530551
O21	O	0.225850	0.130170	0.138830	-0.530551
O22	O	0.306520	0.175260	0.172400	-0.530551
O23	O	0.994850	0.369830	0.361170	-0.530551
O24	O	0.154180	0.324740	0.327600	-0.530551
O25	O	0.135320	0.138830	0.369830	-0.530551
O26	O	0.021080	0.172400	0.324740	-0.530551
O27	O	0.143980	0.361170	0.130170	-0.530551
O28	O	0.018220	0.327600	0.175260	-0.530551
O29	O	0.774150	0.869830	0.861170	-0.530551
O30	O	0.693480	0.824740	0.827600	-0.530551
O31	O	0.005150	0.630170	0.638830	-0.530551
O32	O	0.845820	0.675260	0.672400	-0.530551
