data_YEGKOM_clean_PM
_symmetry_space_group_name_H-M	'P1'
_cell_length_a	10.204000
_cell_length_b	10.204000
_cell_length_c	13.099800
_cell_angle_alpha	90.000000
_cell_angle_beta	90.000000
_cell_angle_gamma	90.000000
_symmetry_Int_Tables_number 1

loop_
_symmetry_equiv_pos_as_xyz
'x,y,z'

loop_
_atom_site_label
_atom_site_type_symbol
_atom_site_fract_x
_atom_site_fract_y
_atom_site_fract_z
_atom_site_charge
Zn1	Zn	0.730310	0.730310	0.500000	0.798028
Zn2	Zn	0.269690	0.269690	0.000000	0.798028
Zn3	Zn	0.769690	0.230310	0.750000	0.798028
Zn4	Zn	0.230310	0.769690	0.250000	0.798028
H1	H	0.621500	0.453200	0.447600	0.053933
H2	H	0.869100	0.511500	0.766500	0.323504
H3	H	0.857900	0.636200	0.708100	0.323504
H4	H	0.378500	0.546800	0.947600	0.053933
H5	H	0.130900	0.488500	0.266500	0.323504
H6	H	0.142100	0.363800	0.208100	0.323504
H7	H	0.046800	0.121500	0.697600	0.053933
H8	H	0.988500	0.369100	0.016500	0.323504
H9	H	0.863800	0.357900	0.958100	0.323504
H10	H	0.953200	0.878500	0.197600	0.053933
H11	H	0.011500	0.630900	0.516500	0.323504
H12	H	0.136200	0.642100	0.458100	0.323504
H13	H	0.878500	0.953200	0.802400	0.053933
H14	H	0.630900	0.011500	0.483500	0.323504
H15	H	0.642100	0.136200	0.541900	0.323504
H16	H	0.121500	0.046800	0.302400	0.053933
H17	H	0.369100	0.988500	0.983500	0.323504
H18	H	0.357900	0.863800	0.041900	0.323504
H19	H	0.453200	0.621500	0.552400	0.053933
H20	H	0.511500	0.869100	0.233500	0.323504
H21	H	0.636200	0.857900	0.291900	0.323504
H22	H	0.546800	0.378500	0.052400	0.053933
H23	H	0.488500	0.130900	0.733500	0.323504
H24	H	0.363800	0.142100	0.791900	0.323504
C1	C	0.771300	0.491000	0.640200	0.640585
C2	C	0.664900	0.446000	0.509800	0.230305
C3	C	0.228700	0.509000	0.140200	0.640585
C4	C	0.335100	0.554000	0.009800	0.230305
C5	C	0.009000	0.271300	0.890200	0.640585
C6	C	0.054000	0.164900	0.759800	0.230305
C7	C	0.991000	0.728700	0.390200	0.640585
C8	C	0.946000	0.835100	0.259800	0.230305
C9	C	0.728700	0.991000	0.609800	0.640585
C10	C	0.835100	0.946000	0.740200	0.230305
C11	C	0.271300	0.009000	0.109800	0.640585
C12	C	0.164900	0.054000	0.240200	0.230305
C13	C	0.491000	0.771300	0.359800	0.640585
C14	C	0.446000	0.664900	0.490200	0.230305
C15	C	0.509000	0.228700	0.859800	0.640585
C16	C	0.554000	0.335100	0.990200	0.230305
N1	N	0.725900	0.548000	0.557700	-0.595469
N2	N	0.747400	0.366700	0.650400	-0.327284
N3	N	0.674300	0.337000	0.560900	-0.282259
N4	N	0.841400	0.554000	0.714100	-0.765834
N5	N	0.274100	0.452000	0.057700	-0.595469
N6	N	0.252600	0.633300	0.150400	-0.327284
N7	N	0.325700	0.663000	0.060900	-0.282259
N8	N	0.158600	0.446000	0.214100	-0.765834
N9	N	0.952000	0.225900	0.807700	-0.595469
N10	N	0.133300	0.247400	0.900400	-0.327284
N11	N	0.163000	0.174300	0.810900	-0.282259
N12	N	0.946000	0.341400	0.964100	-0.765834
N13	N	0.048000	0.774100	0.307700	-0.595469
N14	N	0.866700	0.752600	0.400400	-0.327284
N15	N	0.837000	0.825700	0.310900	-0.282259
N16	N	0.054000	0.658600	0.464100	-0.765834
N17	N	0.774100	0.048000	0.692300	-0.595469
N18	N	0.752600	0.866700	0.599600	-0.327284
N19	N	0.825700	0.837000	0.689100	-0.282259
N20	N	0.658600	0.054000	0.535900	-0.765834
N21	N	0.225900	0.952000	0.192300	-0.595469
N22	N	0.247400	0.133300	0.099600	-0.327284
N23	N	0.174300	0.163000	0.189100	-0.282259
N24	N	0.341400	0.946000	0.035900	-0.765834
N25	N	0.548000	0.725900	0.442300	-0.595469
N26	N	0.366700	0.747400	0.349600	-0.327284
N27	N	0.337000	0.674300	0.439100	-0.282259
N28	N	0.554000	0.841400	0.285900	-0.765834
N29	N	0.452000	0.274100	0.942300	-0.595469
N30	N	0.633300	0.252600	0.849600	-0.327284
N31	N	0.663000	0.325700	0.939100	-0.282259
N32	N	0.446000	0.158600	0.785900	-0.765834
