data_YEYFEP_clean_PM
_symmetry_space_group_name_H-M	'P1'
_cell_length_a	12.572900
_cell_length_b	12.572900
_cell_length_c	25.944000
_cell_angle_alpha	90.000000
_cell_angle_beta	90.000000
_cell_angle_gamma	90.000000
_symmetry_Int_Tables_number 1

loop_
_symmetry_equiv_pos_as_xyz
'x,y,z'

loop_
_atom_site_label
_atom_site_type_symbol
_atom_site_fract_x
_atom_site_fract_y
_atom_site_fract_z
_atom_site_charge
Ho1	Ho	0.143530	0.957240	0.448380	2.242029
Ho2	Ho	0.856470	0.042760	0.448380	2.242029
Ho3	Ho	0.957240	0.856470	0.551620	2.242029
Ho4	Ho	0.042760	0.143530	0.551620	2.242029
Ho5	Ho	0.356470	0.457240	0.051620	2.242029
Ho6	Ho	0.643530	0.542760	0.051620	2.242029
Ho7	Ho	0.542760	0.356470	0.948380	2.242029
Ho8	Ho	0.457240	0.643530	0.948380	2.242029
H1	H	0.960900	0.839300	0.443600	0.448379
H2	H	0.343500	0.460200	0.221700	0.088437
H3	H	0.347200	0.463100	0.310500	0.113635
H4	H	0.368500	0.528100	0.450200	0.113635
H5	H	0.277600	0.395100	0.495800	0.088437
H6	H	0.391000	0.172700	0.403300	0.088437
H7	H	0.507000	0.293500	0.365400	0.113635
H8	H	0.039100	0.160700	0.443600	0.448379
H9	H	0.656500	0.539800	0.221700	0.088437
H10	H	0.652800	0.536900	0.310500	0.113635
H11	H	0.631500	0.471900	0.450200	0.113635
H12	H	0.722400	0.604900	0.495800	0.088437
H13	H	0.609000	0.827300	0.403300	0.088437
H14	H	0.493000	0.706500	0.365400	0.113635
H15	H	0.839300	0.039100	0.556400	0.448379
H16	H	0.460200	0.656500	0.778300	0.088437
H17	H	0.463100	0.652800	0.689500	0.113635
H18	H	0.528100	0.631500	0.549800	0.113635
H19	H	0.395100	0.722400	0.504200	0.088437
H20	H	0.172700	0.609000	0.596700	0.088437
H21	H	0.293500	0.493000	0.634600	0.113635
H22	H	0.160700	0.960900	0.556400	0.448379
H23	H	0.539800	0.343500	0.778300	0.088437
H24	H	0.536900	0.347200	0.689500	0.113635
H25	H	0.471900	0.368500	0.549800	0.113635
H26	H	0.604900	0.277600	0.504200	0.088437
H27	H	0.827300	0.391000	0.596700	0.088437
H28	H	0.706500	0.507000	0.634600	0.113635
H29	H	0.539100	0.339300	0.056400	0.448379
H30	H	0.156500	0.960200	0.278300	0.088437
H31	H	0.152800	0.963100	0.189500	0.113635
H32	H	0.131500	0.028100	0.049800	0.113635
H33	H	0.222400	0.895100	0.004200	0.088437
H34	H	0.109000	0.672700	0.096700	0.088437
H35	H	0.993000	0.793500	0.134600	0.113635
H36	H	0.460900	0.660700	0.056400	0.448379
H37	H	0.843500	0.039800	0.278300	0.088437
H38	H	0.847200	0.036900	0.189500	0.113635
H39	H	0.868500	0.971900	0.049800	0.113635
H40	H	0.777600	0.104900	0.004200	0.088437
H41	H	0.891000	0.327300	0.096700	0.088437
H42	H	0.007000	0.206500	0.134600	0.113635
H43	H	0.660700	0.539100	0.943600	0.448379
H44	H	0.039800	0.156500	0.721700	0.088437
H45	H	0.036900	0.152800	0.810500	0.113635
H46	H	0.971900	0.131500	0.950200	0.113635
H47	H	0.104900	0.222400	0.995800	0.088437
H48	H	0.327300	0.109000	0.903300	0.088437
H49	H	0.206500	0.993000	0.865400	0.113635
H50	H	0.339300	0.460900	0.943600	0.448379
H51	H	0.960200	0.843500	0.721700	0.088437
H52	H	0.963100	0.847200	0.810500	0.113635
H53	H	0.028100	0.868500	0.950200	0.113635
H54	H	0.895100	0.777600	0.995800	0.088437
H55	H	0.672700	0.891000	0.903300	0.088437
H56	H	0.793500	0.007000	0.865400	0.113635
C1	C	0.405800	0.476300	0.239320	-0.010542
C2	C	0.409400	0.477800	0.292520	-0.208266
C3	C	0.443700	0.422500	0.402550	0.136985
C4	C	0.376000	0.456600	0.441720	-0.208266
C5	C	0.319300	0.375400	0.467780	-0.010542
C6	C	0.321500	0.269500	0.454440	-0.200893
C7	C	0.389800	0.243100	0.414300	-0.010542
C8	C	0.456600	0.315400	0.389400	-0.208266
C9	C	0.250400	0.191000	0.477400	0.785818
C10	C	0.594200	0.523700	0.239320	-0.010542
C11	C	0.590600	0.522200	0.292520	-0.208266
C12	C	0.556300	0.577500	0.402550	0.136985
C13	C	0.624000	0.543400	0.441720	-0.208266
C14	C	0.680700	0.624600	0.467780	-0.010542
C15	C	0.678500	0.730500	0.454440	-0.200893
C16	C	0.610200	0.756900	0.414300	-0.010542
C17	C	0.543400	0.684600	0.389400	-0.208266
C18	C	0.749600	0.809000	0.477400	0.785818
C19	C	0.476300	0.594200	0.760680	-0.010542
C20	C	0.477800	0.590600	0.707480	-0.208266
C21	C	0.422500	0.556300	0.597450	0.136985
C22	C	0.456600	0.624000	0.558280	-0.208266
C23	C	0.375400	0.680700	0.532220	-0.010542
C24	C	0.269500	0.678500	0.545560	-0.200893
C25	C	0.243100	0.610200	0.585700	-0.010542
C26	C	0.315400	0.543400	0.610600	-0.208266
C27	C	0.191000	0.749600	0.522600	0.785818
C28	C	0.523700	0.405800	0.760680	-0.010542
C29	C	0.522200	0.409400	0.707480	-0.208266
C30	C	0.577500	0.443700	0.597450	0.136985
C31	C	0.543400	0.376000	0.558280	-0.208266
C32	C	0.624600	0.319300	0.532220	-0.010542
C33	C	0.730500	0.321500	0.545560	-0.200893
C34	C	0.756900	0.389800	0.585700	-0.010542
C35	C	0.684600	0.456600	0.610600	-0.208266
C36	C	0.809000	0.250400	0.522600	0.785818
C37	C	0.094200	0.976300	0.260680	-0.010542
C38	C	0.090600	0.977800	0.207480	-0.208266
C39	C	0.056300	0.922500	0.097450	0.136985
C40	C	0.124000	0.956600	0.058280	-0.208266
C41	C	0.180700	0.875400	0.032220	-0.010542
C42	C	0.178500	0.769500	0.045560	-0.200893
C43	C	0.110200	0.743100	0.085700	-0.010542
C44	C	0.043400	0.815400	0.110600	-0.208266
C45	C	0.249600	0.691000	0.022600	0.785818
C46	C	0.905800	0.023700	0.260680	-0.010542
C47	C	0.909400	0.022200	0.207480	-0.208266
C48	C	0.943700	0.077500	0.097450	0.136985
C49	C	0.876000	0.043400	0.058280	-0.208266
C50	C	0.819300	0.124600	0.032220	-0.010542
C51	C	0.821500	0.230500	0.045560	-0.200893
C52	C	0.889800	0.256900	0.085700	-0.010542
C53	C	0.956600	0.184600	0.110600	-0.208266
C54	C	0.750400	0.309000	0.022600	0.785818
C55	C	0.023700	0.094200	0.739320	-0.010542
C56	C	0.022200	0.090600	0.792520	-0.208266
C57	C	0.077500	0.056300	0.902550	0.136985
C58	C	0.043400	0.124000	0.941720	-0.208266
C59	C	0.124600	0.180700	0.967780	-0.010542
C60	C	0.230500	0.178500	0.954440	-0.200893
C61	C	0.256900	0.110200	0.914300	-0.010542
C62	C	0.184600	0.043400	0.889400	-0.208266
C63	C	0.309000	0.249600	0.977400	0.785818
C64	C	0.976300	0.905800	0.739320	-0.010542
C65	C	0.977800	0.909400	0.792520	-0.208266
C66	C	0.922500	0.943700	0.902550	0.136985
C67	C	0.956600	0.876000	0.941720	-0.208266
C68	C	0.875400	0.819300	0.967780	-0.010542
C69	C	0.769500	0.821500	0.954440	-0.200893
C70	C	0.743100	0.889800	0.914300	-0.010542
C71	C	0.815400	0.956600	0.889400	-0.208266
C72	C	0.691000	0.750400	0.977400	0.785818
C73	C	0.500000	0.500000	0.155700	0.785818
C74	C	0.500000	0.500000	0.213290	-0.200893
C75	C	0.500000	0.500000	0.320400	0.136985
C76	C	0.500000	0.500000	0.844300	0.785818
C77	C	0.500000	0.500000	0.786710	-0.200893
C78	C	0.500000	0.500000	0.679600	0.136985
C79	C	0.000000	0.000000	0.344300	0.785818
C80	C	0.000000	0.000000	0.286710	-0.200893
C81	C	0.000000	0.000000	0.179600	0.136985
C82	C	0.000000	0.000000	0.655700	0.785818
C83	C	0.000000	0.000000	0.713290	-0.200893
C84	C	0.000000	0.000000	0.820400	0.136985
N1	N	0.500000	0.500000	0.375400	-0.113258
N2	N	0.500000	0.500000	0.624600	-0.113258
N3	N	0.000000	0.000000	0.124600	-0.113258
N4	N	0.000000	0.000000	0.875400	-0.113258
O1	O	0.975500	0.892600	0.462520	-1.229235
O2	O	0.188900	0.223200	0.511260	-0.812400
O3	O	0.258000	0.096500	0.463490	-0.812400
O4	O	0.585900	0.494600	0.132720	-0.812400
O5	O	0.024500	0.107400	0.462520	-1.229235
O6	O	0.811100	0.776800	0.511260	-0.812400
O7	O	0.742000	0.903500	0.463490	-0.812400
O8	O	0.414100	0.505400	0.132720	-0.812400
O9	O	0.892600	0.024500	0.537480	-1.229235
O10	O	0.223200	0.811100	0.488740	-0.812400
O11	O	0.096500	0.742000	0.536510	-0.812400
O12	O	0.494600	0.414100	0.867280	-0.812400
O13	O	0.107400	0.975500	0.537480	-1.229235
O14	O	0.776800	0.188900	0.488740	-0.812400
O15	O	0.903500	0.258000	0.536510	-0.812400
O16	O	0.505400	0.585900	0.867280	-0.812400
O17	O	0.524500	0.392600	0.037480	-1.229235
O18	O	0.311100	0.723200	0.988740	-0.812400
O19	O	0.242000	0.596500	0.036510	-0.812400
O20	O	0.914100	0.994600	0.367280	-0.812400
O21	O	0.475500	0.607400	0.037480	-1.229235
O22	O	0.688900	0.276800	0.988740	-0.812400
O23	O	0.758000	0.403500	0.036510	-0.812400
O24	O	0.085900	0.005400	0.367280	-0.812400
O25	O	0.607400	0.524500	0.962520	-1.229235
O26	O	0.276800	0.311100	0.011260	-0.812400
O27	O	0.403500	0.242000	0.963490	-0.812400
O28	O	0.005400	0.914100	0.632720	-0.812400
O29	O	0.392600	0.475500	0.962520	-1.229235
O30	O	0.723200	0.688900	0.011260	-0.812400
O31	O	0.596500	0.758000	0.963490	-0.812400
O32	O	0.994600	0.085900	0.632720	-0.812400
