data_YUCNEQ_clean_PM
_symmetry_space_group_name_H-M	'P1'
_cell_length_a	7.020000
_cell_length_b	8.227000
_cell_length_c	8.529181
_cell_angle_alpha	113.308058
_cell_angle_beta	114.300711
_cell_angle_gamma	89.999999
_symmetry_Int_Tables_number 1

loop_
_symmetry_equiv_pos_as_xyz
'x,y,z'

loop_
_atom_site_label
_atom_site_type_symbol
_atom_site_fract_x
_atom_site_fract_y
_atom_site_fract_z
_atom_site_charge
Co1	Co	0.500000	0.500000	0.500000	1.122437
Co2	Co	0.000000	0.000000	0.500000	1.122437
H1	H	0.316700	0.059000	0.915400	0.135506
H2	H	0.401300	0.441000	0.084600	0.135506
H3	H	0.683300	0.941000	0.084600	0.135506
H4	H	0.598700	0.559000	0.915400	0.135506
C1	C	0.385040	0.848670	0.727700	0.715989
C2	C	0.418340	0.990180	0.918680	-0.189533
C3	C	0.657340	0.651330	0.272300	0.715989
C4	C	0.499660	0.509820	0.081320	-0.189533
C5	C	0.614960	0.151330	0.272300	0.715989
C6	C	0.581660	0.009820	0.081320	-0.189533
C7	C	0.342660	0.348670	0.727700	0.715989
C8	C	0.500340	0.490180	0.918680	-0.189533
O1	O	0.514700	0.743600	0.721260	-0.611590
O2	O	0.224420	0.840460	0.580220	-0.611590
O3	O	0.793440	0.756400	0.278740	-0.611590
O4	O	0.644200	0.659540	0.419780	-0.611590
O5	O	0.485300	0.256400	0.278740	-0.611590
O6	O	0.775580	0.159540	0.419780	-0.611590
O7	O	0.206560	0.243600	0.721260	-0.611590
O8	O	0.355800	0.340460	0.580220	-0.611590
