data_YUJNOH_clean_PM
_symmetry_space_group_name_H-M	'P1'
_cell_length_a	8.860100
_cell_length_b	12.985400
_cell_length_c	12.985400
_cell_angle_alpha	90.000000
_cell_angle_beta	90.000000
_cell_angle_gamma	90.000000
_symmetry_Int_Tables_number 1

loop_
_symmetry_equiv_pos_as_xyz
'x,y,z'

loop_
_atom_site_label
_atom_site_type_symbol
_atom_site_fract_x
_atom_site_fract_y
_atom_site_fract_z
_atom_site_charge
Sr1	Sr	0.713590	0.048830	0.944940	1.493986
Sr2	Sr	0.713590	0.451170	0.555060	1.493986
Sr3	Sr	0.713590	0.555060	0.048830	1.493986
Sr4	Sr	0.713590	0.944940	0.451170	1.493986
Sr5	Sr	0.286410	0.951170	0.055060	1.493986
Sr6	Sr	0.286410	0.548830	0.444940	1.493986
Sr7	Sr	0.286410	0.444940	0.951170	1.493986
Sr8	Sr	0.286410	0.055060	0.548830	1.493986
C1	C	0.623400	0.991500	0.196200	0.694733
C2	C	0.792100	0.991110	0.196430	0.242802
C3	C	0.623400	0.508500	0.303800	0.694733
C4	C	0.792100	0.508890	0.303570	0.242802
C5	C	0.623400	0.303800	0.991500	0.694733
C6	C	0.792100	0.303570	0.991110	0.242802
C7	C	0.623400	0.196200	0.508500	0.694733
C8	C	0.792100	0.196430	0.508890	0.242802
C9	C	0.376600	0.008500	0.803800	0.694733
C10	C	0.207900	0.008890	0.803570	0.242802
C11	C	0.376600	0.491500	0.696200	0.694733
C12	C	0.207900	0.491110	0.696430	0.242802
C13	C	0.376600	0.696200	0.008500	0.694733
C14	C	0.207900	0.696430	0.008890	0.242802
C15	C	0.376600	0.803800	0.491500	0.694733
C16	C	0.207900	0.803570	0.491110	0.242802
N1	N	0.876700	0.997800	0.112060	-0.413123
N2	N	0.874200	0.981860	0.281080	-0.394762
N3	N	0.018500	0.992410	0.147320	-0.162876
N4	N	0.017700	0.982960	0.247780	-0.054787
N5	N	0.876700	0.502200	0.387940	-0.413123
N6	N	0.874200	0.518140	0.218920	-0.394762
N7	N	0.018500	0.507590	0.352680	-0.162876
N8	N	0.017700	0.517040	0.252220	-0.054787
N9	N	0.876700	0.387940	0.997800	-0.413123
N10	N	0.874200	0.218920	0.981860	-0.394762
N11	N	0.018500	0.352680	0.992410	-0.162876
N12	N	0.017700	0.252220	0.982960	-0.054787
N13	N	0.876700	0.112060	0.502200	-0.413123
N14	N	0.874200	0.281080	0.518140	-0.394762
N15	N	0.018500	0.147320	0.507590	-0.162876
N16	N	0.017700	0.247780	0.517040	-0.054787
N17	N	0.123300	0.002200	0.887940	-0.413123
N18	N	0.125800	0.018140	0.718920	-0.394762
N19	N	0.981500	0.007590	0.852680	-0.162876
N20	N	0.982300	0.017040	0.752220	-0.054787
N21	N	0.123300	0.497800	0.612060	-0.413123
N22	N	0.125800	0.481860	0.781080	-0.394762
N23	N	0.981500	0.492410	0.647320	-0.162876
N24	N	0.982300	0.482960	0.747780	-0.054787
N25	N	0.123300	0.612060	0.002200	-0.413123
N26	N	0.125800	0.781080	0.018140	-0.394762
N27	N	0.981500	0.647320	0.007590	-0.162876
N28	N	0.982300	0.747780	0.017040	-0.054787
N29	N	0.123300	0.887940	0.497800	-0.413123
N30	N	0.125800	0.718920	0.481860	-0.394762
N31	N	0.981500	0.852680	0.492410	-0.162876
N32	N	0.982300	0.752220	0.482960	-0.054787
O1	O	0.558480	0.998720	0.110470	-0.764615
O2	O	0.560140	0.983860	0.282230	-0.641357
O3	O	0.558480	0.501280	0.389530	-0.764615
O4	O	0.560140	0.516140	0.217770	-0.641357
O5	O	0.558480	0.389530	0.998720	-0.764615
O6	O	0.560140	0.217770	0.983860	-0.641357
O7	O	0.558480	0.110470	0.501280	-0.764615
O8	O	0.560140	0.282230	0.516140	-0.641357
O9	O	0.441520	0.001280	0.889530	-0.764615
O10	O	0.439860	0.016140	0.717770	-0.641357
O11	O	0.441520	0.498720	0.610470	-0.764615
O12	O	0.439860	0.483860	0.782230	-0.641357
O13	O	0.441520	0.610470	0.001280	-0.764615
O14	O	0.439860	0.782230	0.016140	-0.641357
O15	O	0.441520	0.889530	0.498720	-0.764615
O16	O	0.439860	0.717770	0.483860	-0.641357
