data_YUKBIP01_clean_PM
_symmetry_space_group_name_H-M	'P1'
_cell_length_a	8.531100
_cell_length_b	13.994900
_cell_length_c	13.994900
_cell_angle_alpha	120.000000
_cell_angle_beta	90.000000
_cell_angle_gamma	90.000000
_symmetry_Int_Tables_number 1

loop_
_symmetry_equiv_pos_as_xyz
'x,y,z'

loop_
_atom_site_label
_atom_site_type_symbol
_atom_site_fract_x
_atom_site_fract_y
_atom_site_fract_z
_atom_site_charge
Al1	Al	0.441200	0.494600	0.097300	2.049908
Al2	Al	0.441200	0.602700	0.505400	2.049908
Al3	Al	0.441200	0.902700	0.397300	2.049908
Al4	Al	0.941200	0.397300	0.902700	2.049908
Al5	Al	0.941200	0.097300	0.494600	2.049908
Al6	Al	0.941200	0.505400	0.602700	2.049908
Al7	Al	0.510200	0.333330	0.666660	1.793748
Al8	Al	0.010200	0.666670	0.333340	1.793748
P1	P	0.300300	0.347990	0.865710	1.953416
P2	P	0.768600	0.189720	0.719290	1.953416
P3	P	0.300300	0.517720	0.652010	1.953416
P4	P	0.768600	0.529570	0.810280	1.953416
P5	P	0.300300	0.134290	0.482280	1.953416
P6	P	0.768600	0.280710	0.470430	1.953416
P7	P	0.800300	0.482280	0.134290	1.953416
P8	P	0.268600	0.470430	0.280710	1.953416
P9	P	0.800300	0.865710	0.347990	1.953416
P10	P	0.268600	0.719290	0.189720	1.953416
P11	P	0.800300	0.652010	0.517720	1.953416
P12	P	0.268600	0.810280	0.529570	1.953416
H1	H	0.216800	0.189000	0.857300	0.184222
H2	H	0.368700	0.166400	0.786100	0.184222
H3	H	0.206400	0.177900	0.740300	0.184222
H4	H	0.787800	0.065900	0.779700	0.184222
H5	H	0.633800	0.044800	0.710800	0.184222
H6	H	0.641500	0.142200	0.833000	0.184222
H7	H	0.216800	0.668300	0.811000	0.184222
H8	H	0.368700	0.619700	0.833600	0.184222
H9	H	0.206400	0.562400	0.822100	0.184222
H10	H	0.787800	0.713800	0.934100	0.184222
H11	H	0.633800	0.666000	0.955200	0.184222
H12	H	0.641500	0.690800	0.857800	0.184222
H13	H	0.216800	0.142700	0.331700	0.184222
H14	H	0.368700	0.213900	0.380300	0.184222
H15	H	0.206400	0.259700	0.437600	0.184222
H16	H	0.787800	0.220300	0.286200	0.184222
H17	H	0.633800	0.289200	0.334000	0.184222
H18	H	0.641500	0.167000	0.309200	0.184222
H19	H	0.716800	0.331700	0.142700	0.184222
H20	H	0.868700	0.380300	0.213900	0.184222
H21	H	0.706400	0.437600	0.259700	0.184222
H22	H	0.287800	0.286200	0.220300	0.184222
H23	H	0.133800	0.334000	0.289200	0.184222
H24	H	0.141500	0.309200	0.167000	0.184222
H25	H	0.716800	0.857300	0.189000	0.184222
H26	H	0.868700	0.786100	0.166400	0.184222
H27	H	0.706400	0.740300	0.177900	0.184222
H28	H	0.287800	0.779700	0.065900	0.184222
H29	H	0.133800	0.710800	0.044800	0.184222
H30	H	0.141500	0.833000	0.142200	0.184222
H31	H	0.716800	0.811000	0.668300	0.184222
H32	H	0.868700	0.833600	0.619700	0.184222
H33	H	0.706400	0.822100	0.562400	0.184222
H34	H	0.287800	0.934100	0.713800	0.184222
H35	H	0.133800	0.955200	0.666000	0.184222
H36	H	0.141500	0.857800	0.690800	0.184222
C1	C	0.269500	0.203700	0.805300	-0.768960
C2	C	0.700100	0.100400	0.766000	-0.768960
C3	C	0.269500	0.601600	0.796300	-0.768960
C4	C	0.700100	0.665600	0.899600	-0.768960
C5	C	0.269500	0.194700	0.398400	-0.768960
C6	C	0.700100	0.234000	0.334400	-0.768960
C7	C	0.769500	0.398400	0.194700	-0.768960
C8	C	0.200100	0.334400	0.234000	-0.768960
C9	C	0.769500	0.805300	0.203700	-0.768960
C10	C	0.200100	0.766000	0.100400	-0.768960
C11	C	0.769500	0.796300	0.601600	-0.768960
C12	C	0.200100	0.899600	0.665600	-0.768960
O1	O	0.382800	0.375400	0.790700	-0.939798
O2	O	0.392200	0.385100	0.970700	-1.060618
O3	O	0.139300	0.405900	0.896400	-1.060618
O4	O	0.631200	0.246100	0.705100	-0.939798
O5	O	0.856300	0.112200	0.612700	-1.060618
O6	O	0.885900	0.267500	0.801300	-1.060618
O7	O	0.382800	0.415300	0.624600	-0.939798
O8	O	0.392200	0.585600	0.614900	-1.060618
O9	O	0.139300	0.490500	0.594100	-1.060618
O10	O	0.631200	0.459000	0.753900	-0.939798
O11	O	0.856300	0.500500	0.887800	-1.060618
O12	O	0.885900	0.533800	0.732500	-1.060618
O13	O	0.382800	0.209300	0.584700	-0.939798
O14	O	0.392200	0.029300	0.414400	-1.060618
O15	O	0.139300	0.103600	0.509500	-1.060618
O16	O	0.631200	0.294900	0.541000	-0.939798
O17	O	0.856300	0.387300	0.499500	-1.060618
O18	O	0.885900	0.198700	0.466200	-1.060618
O19	O	0.882800	0.584700	0.209300	-0.939798
O20	O	0.892200	0.414400	0.029300	-1.060618
O21	O	0.639300	0.509500	0.103600	-1.060618
O22	O	0.131200	0.541000	0.294900	-0.939798
O23	O	0.356300	0.499500	0.387300	-1.060618
O24	O	0.385900	0.466200	0.198700	-1.060618
O25	O	0.882800	0.790700	0.375400	-0.939798
O26	O	0.892200	0.970700	0.385100	-1.060618
O27	O	0.639300	0.896400	0.405900	-1.060618
O28	O	0.131200	0.705100	0.246100	-0.939798
O29	O	0.356300	0.612700	0.112200	-1.060618
O30	O	0.385900	0.801300	0.267500	-1.060618
O31	O	0.882800	0.624600	0.415300	-0.939798
O32	O	0.892200	0.614900	0.585600	-1.060618
O33	O	0.639300	0.594100	0.490500	-1.060618
O34	O	0.131200	0.753900	0.459000	-0.939798
O35	O	0.356300	0.887800	0.500500	-1.060618
O36	O	0.385900	0.732500	0.533800	-1.060618
