data_YUKKAR_clean_PM
_symmetry_space_group_name_H-M	'P1'
_cell_length_a	9.470000
_cell_length_b	9.784500
_cell_length_c	12.742500
_cell_angle_alpha	87.246500
_cell_angle_beta	84.302901
_cell_angle_gamma	61.057701
_symmetry_Int_Tables_number 1

loop_
_symmetry_equiv_pos_as_xyz
'x,y,z'

loop_
_atom_site_label
_atom_site_type_symbol
_atom_site_fract_x
_atom_site_fract_y
_atom_site_fract_z
_atom_site_charge
Mn1	Mn	0.654260	0.691480	0.000000	1.122491
Mn2	Mn	0.345740	0.308520	0.000000	1.122491
H1	H	0.435600	0.233800	0.425800	0.131680
H2	H	0.555400	0.228600	0.259000	0.125416
H3	H	0.063300	0.764600	0.144300	0.106012
H4	H	0.311700	0.763600	0.138700	0.100378
H5	H	0.684000	0.100000	0.108000	0.116900
H6	H	0.330600	0.233800	0.574200	0.131680
H7	H	0.216000	0.228600	0.741000	0.125416
H8	H	0.172100	0.764600	0.855700	0.106012
H9	H	0.924700	0.763600	0.861300	0.100378
H10	H	0.216000	0.100000	0.892000	0.116900
H11	H	0.564400	0.766200	0.574200	0.131680
H12	H	0.444600	0.771400	0.741000	0.125416
H13	H	0.936700	0.235400	0.855700	0.106012
H14	H	0.688300	0.236400	0.861300	0.100378
H15	H	0.316000	0.900000	0.892000	0.116900
H16	H	0.669400	0.766200	0.425800	0.131680
H17	H	0.784000	0.771400	0.259000	0.125416
H18	H	0.827900	0.235400	0.144300	0.106012
H19	H	0.075300	0.236400	0.138700	0.100378
H20	H	0.784000	0.900000	0.108000	0.116900
C1	C	0.508900	0.136200	0.393600	-0.159302
C2	C	0.581300	0.133200	0.295100	0.003844
C3	C	0.065900	0.860600	0.142500	-0.149125
C4	C	0.214000	0.859800	0.138100	-0.027831
C5	C	0.468200	0.535400	0.946900	0.499594
C6	C	0.354900	0.136200	0.606400	-0.159302
C7	C	0.285500	0.133200	0.704900	0.003844
C8	C	0.073500	0.860600	0.857500	-0.149125
C9	C	0.926200	0.859800	0.861900	-0.027831
C10	C	0.996400	0.535400	0.053100	0.499594
C11	C	0.491100	0.863800	0.606400	-0.159302
C12	C	0.418700	0.866800	0.704900	0.003844
C13	C	0.934100	0.139400	0.857500	-0.149125
C14	C	0.786000	0.140200	0.861900	-0.027831
C15	C	0.531800	0.464600	0.053100	0.499594
C16	C	0.645100	0.863800	0.393600	-0.159302
C17	C	0.714500	0.866800	0.295100	0.003844
C18	C	0.926500	0.139400	0.142500	-0.149125
C19	C	0.073800	0.140200	0.138100	-0.027831
C20	C	0.003600	0.464600	0.946900	0.499594
C21	C	0.540200	0.000000	0.447200	0.093488
C22	C	0.764500	0.000000	0.140400	-0.070044
C23	C	0.923300	0.000000	0.144200	0.045602
C24	C	0.218700	0.000000	0.132800	-0.138598
C25	C	0.377500	0.000000	0.117500	0.663635
C26	C	0.459800	0.000000	0.552800	0.093488
C27	C	0.235500	0.000000	0.859600	-0.070044
C28	C	0.076700	0.000000	0.855800	0.045602
C29	C	0.781300	0.000000	0.867200	-0.138598
C30	C	0.622500	0.000000	0.882500	0.663635
N1	N	0.686800	0.000000	0.249100	0.077152
N2	N	0.313200	0.000000	0.750900	0.077152
O1	O	0.505430	0.870740	0.112300	-0.589588
O2	O	0.501800	0.637400	0.908500	-0.527421
O3	O	0.387850	0.485300	0.905400	-0.527421
O4	O	0.623830	0.870740	0.887700	-0.589588
O5	O	0.860800	0.637400	0.091500	-0.527421
O6	O	0.126850	0.485300	0.094600	-0.527421
O7	O	0.494570	0.129260	0.887700	-0.589588
O8	O	0.498200	0.362600	0.091500	-0.527421
O9	O	0.612150	0.514700	0.094600	-0.527421
O10	O	0.376170	0.129260	0.112300	-0.589588
O11	O	0.139200	0.362600	0.908500	-0.527421
O12	O	0.873150	0.514700	0.905400	-0.527421
