data_ZIF-90_PM
_symmetry_space_group_name_H-M	'P1'
_cell_length_a	17.271500
_cell_length_b	17.271500
_cell_length_c	17.271500
_cell_angle_alpha	90.000000
_cell_angle_beta	90.000000
_cell_angle_gamma	90.000000
_symmetry_Int_Tables_number 1

loop_
_symmetry_equiv_pos_as_xyz
'x,y,z'

loop_
_atom_site_label
_atom_site_type_symbol
_atom_site_fract_x
_atom_site_fract_y
_atom_site_fract_z
_atom_site_charge
Zn1	Zn	0.000000	0.500000	0.250000	0.802424
Zn2	Zn	0.000000	0.500000	0.750000	0.802424
Zn3	Zn	0.250000	0.000000	0.500000	0.802424
Zn4	Zn	0.750000	0.000000	0.500000	0.802424
Zn5	Zn	0.500000	0.250000	0.000000	0.802424
Zn6	Zn	0.500000	0.750000	0.000000	0.802424
Zn7	Zn	0.500000	0.000000	0.250000	0.802424
Zn8	Zn	0.500000	0.000000	0.750000	0.802424
Zn9	Zn	0.000000	0.250000	0.500000	0.802424
Zn10	Zn	0.000000	0.750000	0.500000	0.802424
Zn11	Zn	0.250000	0.500000	0.000000	0.802424
Zn12	Zn	0.750000	0.500000	0.000000	0.802424
H1	H	0.930000	0.590000	0.105000	0.054367
H2	H	0.862700	0.368000	0.229200	0.112319
H3	H	0.362700	0.868000	0.729200	0.112319
H4	H	0.070000	0.410000	0.105000	0.054367
H5	H	0.137300	0.632000	0.229200	0.112319
H6	H	0.637300	0.132000	0.729200	0.112319
H7	H	0.137300	0.368000	0.770800	0.112319
H8	H	0.637300	0.868000	0.270800	0.112319
H9	H	0.862700	0.632000	0.770800	0.112319
H10	H	0.430000	0.910000	0.395000	0.054367
H11	H	0.362700	0.132000	0.270800	0.112319
H12	H	0.105000	0.930000	0.590000	0.054367
H13	H	0.229200	0.862700	0.368000	0.112319
H14	H	0.729200	0.362700	0.868000	0.112319
H15	H	0.105000	0.070000	0.410000	0.054367
H16	H	0.229200	0.137300	0.632000	0.112319
H17	H	0.605000	0.570000	0.910000	0.054367
H18	H	0.729200	0.637300	0.132000	0.112319
H19	H	0.770800	0.137300	0.368000	0.112319
H20	H	0.270800	0.637300	0.868000	0.112319
H21	H	0.895000	0.930000	0.410000	0.054367
H22	H	0.770800	0.862700	0.632000	0.112319
H23	H	0.395000	0.430000	0.910000	0.054367
H24	H	0.270800	0.362700	0.132000	0.112319
H25	H	0.593620	0.073480	0.890990	0.054367
H26	H	0.368000	0.229200	0.862700	0.112319
H27	H	0.090000	0.605000	0.430000	0.054367
H28	H	0.868000	0.729200	0.362700	0.112319
H29	H	0.632000	0.229200	0.137300	0.112319
H30	H	0.910000	0.605000	0.570000	0.054367
H31	H	0.132000	0.729200	0.637300	0.112319
H32	H	0.368000	0.770800	0.137300	0.112319
H33	H	0.090000	0.395000	0.570000	0.054367
H34	H	0.868000	0.270800	0.637300	0.112319
H35	H	0.410000	0.895000	0.930000	0.054367
H36	H	0.632000	0.770800	0.862700	0.112319
H37	H	0.132000	0.270800	0.362700	0.112319
H38	H	0.590000	0.930000	0.105000	0.054367
H39	H	0.368000	0.862700	0.229200	0.112319
H40	H	0.868000	0.362700	0.729200	0.112319
H41	H	0.410000	0.070000	0.105000	0.054367
H42	H	0.632000	0.137300	0.229200	0.112319
H43	H	0.132000	0.637300	0.729200	0.112319
H44	H	0.368000	0.137300	0.770800	0.112319
H45	H	0.868000	0.637300	0.270800	0.112319
H46	H	0.632000	0.862700	0.770800	0.112319
H47	H	0.910000	0.430000	0.395000	0.054367
H48	H	0.132000	0.362700	0.270800	0.112319
H49	H	0.930000	0.105000	0.590000	0.054367
H50	H	0.862700	0.229200	0.368000	0.112319
H51	H	0.430000	0.605000	0.090000	0.054367
H52	H	0.362700	0.729200	0.868000	0.112319
H53	H	0.137300	0.229200	0.632000	0.112319
H54	H	0.637300	0.729200	0.132000	0.112319
H55	H	0.137300	0.770800	0.368000	0.112319
H56	H	0.570000	0.395000	0.090000	0.054367
H57	H	0.637300	0.270800	0.868000	0.112319
H58	H	0.862700	0.770800	0.632000	0.112319
H59	H	0.362700	0.270800	0.132000	0.112319
H60	H	0.105000	0.590000	0.930000	0.054367
H61	H	0.229200	0.368000	0.862700	0.112319
H62	H	0.605000	0.090000	0.430000	0.054367
H63	H	0.729200	0.868000	0.362700	0.112319
H64	H	0.229200	0.632000	0.137300	0.112319
H65	H	0.605000	0.910000	0.570000	0.054367
H66	H	0.729200	0.132000	0.637300	0.112319
H67	H	0.770800	0.368000	0.137300	0.112319
H68	H	0.395000	0.090000	0.570000	0.054367
H69	H	0.270800	0.868000	0.637300	0.112319
H70	H	0.895000	0.410000	0.930000	0.054367
H71	H	0.770800	0.632000	0.862700	0.112319
H72	H	0.270800	0.132000	0.362700	0.112319
C1	C	0.860300	0.406300	0.189800	0.012884
C2	C	0.360300	0.906300	0.689800	0.012884
C3	C	0.139700	0.593700	0.189800	0.012884
C4	C	0.639700	0.093700	0.689800	0.012884
C5	C	0.139700	0.406300	0.810200	0.012884
C6	C	0.639700	0.906300	0.310200	0.012884
C7	C	0.860300	0.593700	0.810200	0.012884
C8	C	0.360300	0.093700	0.310200	0.012884
C9	C	0.189800	0.860300	0.406300	0.012884
C10	C	0.689800	0.360300	0.906300	0.012884
C11	C	0.189800	0.139700	0.593700	0.012884
C12	C	0.689800	0.639700	0.093700	0.012884
C13	C	0.810200	0.139700	0.406300	0.012884
C14	C	0.310200	0.639700	0.906300	0.012884
C15	C	0.810200	0.860300	0.593700	0.012884
C16	C	0.310200	0.360300	0.093700	0.012884
C17	C	0.406300	0.189800	0.860300	0.012884
C18	C	0.906300	0.689800	0.360300	0.012884
C19	C	0.593700	0.189800	0.139700	0.012884
C20	C	0.093700	0.689800	0.639700	0.012884
C21	C	0.406300	0.810200	0.139700	0.012884
C22	C	0.906300	0.310200	0.639700	0.012884
C23	C	0.593700	0.810200	0.860300	0.012884
C24	C	0.093700	0.310200	0.360300	0.012884
C25	C	0.406300	0.860300	0.189800	0.012884
C26	C	0.906300	0.360300	0.689800	0.012884
C27	C	0.593700	0.139700	0.189800	0.012884
C28	C	0.093700	0.639700	0.689800	0.012884
C29	C	0.406300	0.139700	0.810200	0.012884
C30	C	0.906300	0.639700	0.310200	0.012884
C31	C	0.593700	0.860300	0.810200	0.012884
C32	C	0.093700	0.360300	0.310200	0.012884
C33	C	0.860300	0.189800	0.406300	0.012884
C34	C	0.360300	0.689800	0.906300	0.012884
C35	C	0.139700	0.189800	0.593700	0.012884
C36	C	0.639700	0.689800	0.093700	0.012884
C37	C	0.139700	0.810200	0.406300	0.012884
C38	C	0.639700	0.310200	0.906300	0.012884
C39	C	0.860300	0.810200	0.593700	0.012884
C40	C	0.360300	0.310200	0.093700	0.012884
C41	C	0.189800	0.406300	0.860300	0.012884
C42	C	0.689800	0.906300	0.360300	0.012884
C43	C	0.189800	0.593700	0.139700	0.012884
C44	C	0.689800	0.093700	0.639700	0.012884
C45	C	0.810200	0.406300	0.139700	0.012884
C46	C	0.310200	0.906300	0.639700	0.012884
C47	C	0.810200	0.593700	0.860300	0.012884
C48	C	0.310200	0.093700	0.360300	0.012884
C49	C	0.874700	0.486700	0.125300	0.319214
C50	C	0.897400	0.567400	0.102600	0.161592
C51	C	0.374700	0.986700	0.625300	0.319214
C52	C	0.397400	0.067400	0.602600	0.161592
C53	C	0.125300	0.513300	0.125300	0.319214
C54	C	0.102600	0.432600	0.102600	0.161592
C55	C	0.625300	0.013300	0.625300	0.319214
C56	C	0.602600	0.932600	0.602600	0.161592
C57	C	0.125300	0.486700	0.874700	0.319214
C58	C	0.102600	0.567400	0.897400	0.161592
C59	C	0.625300	0.986700	0.374700	0.319214
C60	C	0.602600	0.067400	0.397400	0.161592
C61	C	0.874700	0.513300	0.874700	0.319214
C62	C	0.897400	0.432600	0.897400	0.161592
C63	C	0.374700	0.013300	0.374700	0.319214
C64	C	0.397400	0.932600	0.397400	0.161592
C65	C	0.125300	0.874700	0.486700	0.319214
C66	C	0.102600	0.897400	0.567400	0.161592
C67	C	0.625300	0.374700	0.986700	0.319214
C68	C	0.602600	0.397400	0.067400	0.161592
C69	C	0.125300	0.125300	0.513300	0.319214
C70	C	0.102600	0.102600	0.432600	0.161592
C71	C	0.625300	0.625300	0.013300	0.319214
C72	C	0.602600	0.602600	0.932600	0.161592
C73	C	0.874700	0.125300	0.486700	0.319214
C74	C	0.897400	0.102600	0.567400	0.161592
C75	C	0.374700	0.625300	0.986700	0.319214
C76	C	0.397400	0.602600	0.067400	0.161592
C77	C	0.874700	0.874700	0.513300	0.319214
C78	C	0.897400	0.897400	0.432600	0.161592
C79	C	0.374700	0.374700	0.013300	0.319214
C80	C	0.397400	0.397400	0.932600	0.161592
C81	C	0.486700	0.125300	0.874700	0.319214
C82	C	0.567400	0.102600	0.897400	0.161592
C83	C	0.986700	0.625300	0.374700	0.319214
C84	C	0.067400	0.602600	0.397400	0.161592
C85	C	0.513300	0.125300	0.125300	0.319214
C86	C	0.432600	0.102600	0.102600	0.161592
C87	C	0.013300	0.625300	0.625300	0.319214
C88	C	0.932600	0.602600	0.602600	0.161592
C89	C	0.486700	0.874700	0.125300	0.319214
C90	C	0.567400	0.897400	0.102600	0.161592
C91	C	0.986700	0.374700	0.625300	0.319214
C92	C	0.067400	0.397400	0.602600	0.161592
C93	C	0.513300	0.874700	0.874700	0.319214
C94	C	0.432600	0.897400	0.897400	0.161592
C95	C	0.013300	0.374700	0.374700	0.319214
C96	C	0.932600	0.397400	0.397400	0.161592
N1	N	0.914300	0.467700	0.184500	-0.392135
N2	N	0.414300	0.967700	0.684500	-0.392135
N3	N	0.085700	0.532300	0.184500	-0.392135
N4	N	0.585700	0.032300	0.684500	-0.392135
N5	N	0.085700	0.467700	0.815500	-0.392135
N6	N	0.585700	0.967700	0.315500	-0.392135
N7	N	0.914300	0.532300	0.815500	-0.392135
N8	N	0.414300	0.032300	0.315500	-0.392135
N9	N	0.184500	0.914300	0.467700	-0.392135
N10	N	0.684500	0.414300	0.967700	-0.392135
N11	N	0.184500	0.085700	0.532300	-0.392135
N12	N	0.684500	0.585700	0.032300	-0.392135
N13	N	0.815500	0.085700	0.467700	-0.392135
N14	N	0.315500	0.585700	0.967700	-0.392135
N15	N	0.815500	0.914300	0.532300	-0.392135
N16	N	0.315500	0.414300	0.032300	-0.392135
N17	N	0.467700	0.184500	0.914300	-0.392135
N18	N	0.967700	0.684500	0.414300	-0.392135
N19	N	0.532300	0.184500	0.085700	-0.392135
N20	N	0.032300	0.684500	0.585700	-0.392135
N21	N	0.467700	0.815500	0.085700	-0.392135
N22	N	0.967700	0.315500	0.585700	-0.392135
N23	N	0.532300	0.815500	0.914300	-0.392135
N24	N	0.032300	0.315500	0.414300	-0.392135
N25	N	0.467700	0.914300	0.184500	-0.392135
N26	N	0.967700	0.414300	0.684500	-0.392135
N27	N	0.532300	0.085700	0.184500	-0.392135
N28	N	0.032300	0.585700	0.684500	-0.392135
N29	N	0.467700	0.085700	0.815500	-0.392135
N30	N	0.967700	0.585700	0.315500	-0.392135
N31	N	0.532300	0.914300	0.815500	-0.392135
N32	N	0.032300	0.414300	0.315500	-0.392135
N33	N	0.914300	0.184500	0.467700	-0.392135
N34	N	0.414300	0.684500	0.967700	-0.392135
N35	N	0.085700	0.184500	0.532300	-0.392135
N36	N	0.585700	0.684500	0.032300	-0.392135
N37	N	0.085700	0.815500	0.467700	-0.392135
N38	N	0.585700	0.315500	0.967700	-0.392135
N39	N	0.914300	0.815500	0.532300	-0.392135
N40	N	0.414300	0.315500	0.032300	-0.392135
N41	N	0.184500	0.467700	0.914300	-0.392135
N42	N	0.684500	0.967700	0.414300	-0.392135
N43	N	0.184500	0.532300	0.085700	-0.392135
N44	N	0.684500	0.032300	0.585700	-0.392135
N45	N	0.815500	0.467700	0.085700	-0.392135
N46	N	0.315500	0.967700	0.585700	-0.392135
N47	N	0.815500	0.532300	0.914300	-0.392135
N48	N	0.315500	0.032300	0.414300	-0.392135
O1	O	0.885600	0.612900	0.051400	-0.402520
O2	O	0.114400	0.387100	0.051400	-0.402520
O3	O	0.385600	0.887100	0.448600	-0.402520
O4	O	0.051400	0.885600	0.612900	-0.402520
O5	O	0.051400	0.114400	0.387100	-0.402520
O6	O	0.551400	0.614400	0.887100	-0.402520
O7	O	0.948600	0.885600	0.387100	-0.402520
O8	O	0.448600	0.385600	0.887100	-0.402520
O9	O	0.112900	0.551400	0.385600	-0.402520
O10	O	0.887100	0.551400	0.614400	-0.402520
O11	O	0.112900	0.448600	0.614400	-0.402520
O12	O	0.387100	0.948600	0.885600	-0.402520
O13	O	0.612900	0.885600	0.051400	-0.402520
O14	O	0.387100	0.114400	0.051400	-0.402520
O15	O	0.612900	0.114400	0.948600	-0.402520
O16	O	0.887100	0.385600	0.448600	-0.402520
O17	O	0.885600	0.051400	0.612900	-0.402520
O18	O	0.385600	0.551400	0.112900	-0.402520
O19	O	0.614400	0.448600	0.112900	-0.402520
O20	O	0.051400	0.612900	0.885600	-0.402520
O21	O	0.551400	0.112900	0.385600	-0.402520
O22	O	0.551400	0.887100	0.614400	-0.402520
O23	O	0.448600	0.112900	0.614400	-0.402520
O24	O	0.948600	0.387100	0.885600	-0.402520
